  62
        -98.93979166
 C          2.6037380951        1.1756082872        0.2821427980
 C          2.4477019742        0.3377050481       -0.8467446485
 C          3.0997353988       -0.9824874308       -0.7779380954
 C          3.8215153036       -1.3108249694        0.3101431128
 C          4.6254984246       -2.5541987974        0.6284196228
 C          4.3872708717       -3.8531087773       -0.1381314615
 C          3.0083248146       -4.4795358115        0.0681097680
 H          2.9239915194       -5.3439594561       -0.5938864323
 H          2.9385878564       -4.8408251391        1.0972464392
 C          1.8179165141       -3.5537866218       -0.1748490745
 H          1.8247430562       -2.7458607725        0.5607071052
 H          0.9014574937       -4.1266242106       -0.0048357733
 C          1.7296250027       -2.9477648013       -1.5749405483
 H          0.7580748863       -2.4490012044       -1.6532146837
 H          1.7548420317       -3.7444727285       -2.3210157930
 C          2.8165792886       -1.9131423378       -1.9205106498
 H          3.7281174368       -2.3949259366       -2.2657106163
 H          2.4403519021       -1.2915672819       -2.7381774787
 H          5.1304984256       -4.5678899454        0.2252727573
 H          4.5811203215       -3.7076044440       -1.1965797700
 H          4.4758849877       -2.7373318658        1.6970570318
 H          5.6768889558       -2.2709782900        0.5074129652
 O          3.9774148981       -0.4482232352        1.3577356244
 C          3.3510629507        0.7866632818        1.3900685993
 O          3.5307666500        1.4283010014        2.4454235744
 O          1.7924331431        0.6717216505       -1.8675840846
 C          1.8931147297        2.5159622575        0.3272930316
 C          0.4149788235        2.3081220628        0.0961965041
 C         -0.3478679780        3.1035194300       -0.7482164796
 C         -1.6914012367        2.8317758431       -0.9426362582
 C         -2.3032885066        1.7705868228       -0.3015347936
 C         -1.5524012495        0.9757692926        0.5547318203
 C         -0.2110220153        1.2573776728        0.7556324329
 H          0.3723540073        0.6309649825        1.4211592816
 N         -2.1655468553       -0.1051563868        1.2186820708
 S         -2.9212301623       -1.2603273840        0.2559703649
 O         -2.9171449455       -2.4711591042        1.0490720842
 O         -2.3168661803       -1.3471320768       -1.0526740064
 C         -4.5916757204       -0.6584874145        0.1254990215
 C         -5.2936849826       -0.4348828354        1.2938344798
 C         -6.5942329113        0.0362945479        1.2129333584
 C         -7.1682730376        0.2715671821       -0.0277238019
 C         -6.4515369559        0.0378967571       -1.1913504253
 C         -5.1493054969       -0.4322093642       -1.1174259927
 H         -4.5501731823       -0.6211564765       -1.9940098884
 H         -6.8993607134        0.2210564094       -2.1548285921
 H         -8.1803530556        0.6394169978       -0.0881505756
 H         -7.1546486934        0.2194450617        2.1155094050
 H         -4.8106844137       -0.6335669227        2.2359367051
 H         -1.5526586449       -0.5634741667        1.8783855742
 H         -3.3457335846        1.5483225588       -0.4612944863
 H         -2.2693045790        3.4531391120       -1.6095835479
 H          0.1129014175        3.9281714341       -1.2667380789
 H          2.0340115710        2.9040803762        1.3469689483
 C          2.5279418265        3.4792857576       -0.6539893331
 C          2.5268688096        4.9521047893       -0.3781184899
 C          3.7994683876        4.1693186437       -0.2646860373
 H          4.5621164897        4.3076567835       -1.0162213026
 H          4.1911192016        3.9629078259        0.7209954664
 H          2.4193870445        5.6324001297       -1.2094284697
 H          2.0585578645        5.2899778068        0.5338896537
 H          2.4322217341        3.1465605948       -1.6812281417
