  62
        -98.94451943
 C          1.9507221374        1.0994236208       -0.1681636693
 C          2.4354736669       -0.0457486704       -0.8446026131
 C          3.8893467776       -0.2464716802       -0.7886648571
 C          4.6666042559        0.6501698074       -0.1546273111
 C          6.1655069056        0.5948151704       -0.0346843651
 C          6.6669064149       -0.2842193711        1.1193355620
 C          6.5123313689       -1.7904567098        0.9049337098
 H          6.9504010799       -2.0667505184       -0.0546394068
 H          7.0952328175       -2.2861898237        1.6837658183
 C          5.0641663624       -2.2950880443        0.9760567859
 H          4.4385591698       -1.5418197654        1.4602927342
 H          5.0209088605       -3.1930120030        1.5965123456
 C          4.4489060855       -2.6506715760       -0.3775774078
 H          4.9845619920       -3.4972614748       -0.8129270138
 H          3.4119172142       -2.9556434690       -0.2137673314
 C          4.4474892512       -1.4996078298       -1.3921152388
 H          5.4555318424       -1.3275209378       -1.7689552089
 H          3.8030407048       -1.7808087070       -2.2287432197
 H          6.1454964956        0.0089371462        2.0334188318
 H          7.7282881747       -0.0657065138        1.2575440520
 H          6.5955575720        0.2453634660       -0.9736467325
 H          6.5011395656        1.6189397561        0.1420465791
 O          4.1621398116        1.7556828097        0.4557661192
 C          2.7975196592        1.9938976547        0.4860563497
 O          2.4675002567        3.0187517967        1.1167953301
 H         -1.6843673628       -0.0373375234       -1.1860676208
 C         -1.3451088982       -0.4002471918       -0.2310787924
 C         -0.2796359849        0.1998436351        0.4199452637
 C          0.1306520421       -0.3193869754        1.6461359068
 C         -0.4930475197       -1.4237364867        2.1911852336
 C         -1.5506965176       -2.0269776137        1.5324936556
 C         -1.9749817025       -1.5124244417        0.3142159434
 N         -3.0340832960       -2.1167951832       -0.3812493785
 S         -4.2270209033       -1.1904097481       -1.0943870219
 O         -5.3052883332       -2.1215619869       -1.3433409507
 O         -3.7089092324       -0.4943116017       -2.2435035398
 C         -4.7059655811       -0.0328664422        0.1746187675
 C         -4.2084398642        1.2538068803        0.1548487228
 C         -4.5428564695        2.1159455293        1.1874734327
 C         -5.3629835594        1.6787710364        2.2158440260
 C         -5.8590989623        0.3836745568        2.2184643038
 C         -5.5255928106       -0.4836234398        1.1913452338
 H         -5.8997590868       -1.4937330006        1.1502049621
 H         -6.5010728690        0.0487820311        3.0172042030
 H         -5.6190984277        2.3530280297        3.0178306879
 H         -4.1602299674        3.1242398428        1.1854795794
 H         -3.5778095766        1.5587539032       -0.6636889312
 H         -3.4310726172       -2.9219694473        0.0802496210
 H         -2.0334767303       -2.8967653796        1.9513884248
 H         -0.1555660656       -1.8198638783        3.1371275608
 H          0.9593121001        0.1509660743        2.1585816001
 C          0.4601524213        1.3889985394       -0.1422476366
 H          0.3275227892        2.2355745453        0.5472502844
 C         -0.0105102231        1.8062074983       -1.5195473894
 C         -1.1559295103        2.7600910636       -1.6688294800
 C          0.2398271679        3.2105065879       -1.9773195323
 H          0.5163844932        3.3750754571       -3.0079260001
 H          0.7279697823        3.8778958889       -1.2817662267
 H         -1.6109446520        3.1356352883       -0.7645027099
 H         -1.8448098468        2.6144084860       -2.4881244151
 H          0.0983172757        1.0186288193       -2.2568935111
 O          1.6990810022       -0.8578230795       -1.4625926740
