  62
        -98.93559520
 C         -2.1337888000       -0.8705021859       -0.3970511542
 C         -3.1803368172       -0.7103617077        0.5465855695
 C         -3.7984845552        0.6218246878        0.6490301727
 C         -3.3446098415        1.6179073641       -0.1339796782
 C         -3.7349113204        3.0786948482       -0.2199873817
 C         -5.0176901555        3.5835188232        0.4354308142
 C         -6.3071373432        3.0697828098       -0.2044206827
 H         -6.4072268202        3.5223785222       -1.1941081473
 H         -7.1484819262        3.4093513595        0.4034453267
 C         -6.3989537553        1.5560288597       -0.3790999489
 H         -5.6174253890        1.2174070263       -1.0622684072
 H         -7.3590158831        1.3318810169       -0.8517480366
 C         -6.3160373599        0.7430578193        0.9112114355
 H         -6.5540131573       -0.2945473752        0.6623843029
 H         -7.0679471020        1.0979565651        1.6186062723
 C         -4.9454283360        0.7472103418        1.6103105543
 H         -4.8954065260       -0.1300088754        2.2618591046
 H         -4.8236325148        1.6261459304        2.2390789373
 H         -5.0104101168        4.6722623996        0.3345945075
 H         -5.0060754470        3.3668892153        1.4995629381
 H         -3.7599350490        3.3180792301       -1.2879115765
 H         -2.8885173314        3.6341351683        0.1997911132
 O         -2.3253734899        1.4217392807       -1.0187853200
 C         -1.6969299474        0.1978185025       -1.1776338838
 O         -0.7951597046        0.2166554754       -2.0400938391
 O         -3.5852875117       -1.6505553657        1.2813960817
 C         -1.4925558002       -2.2466119927       -0.4855687962
 C         -0.1892064364       -2.2470525200        0.2771649313
 C         -0.0868398526       -2.8857090298        1.5076516160
 C          1.0928372517       -2.8402561708        2.2300842407
 C          2.1926573375       -2.1556159755        1.7442690072
 C          2.0955618003       -1.5058594571        0.5209440457
 C          0.9172686774       -1.5643843820       -0.2081351241
 H          0.8430894921       -1.0371066895       -1.1476871728
 N          3.2069741768       -0.7867791743        0.0157619086
 S          3.6509985768        0.5680383870        0.9272119585
 O          4.0603312009        0.1254937610        2.2355830866
 O          2.5999672756        1.5646353561        0.8945698244
 C          5.0673187173        1.1324583354        0.0055272162
 C          6.3074750204        0.5953380972        0.2920565972
 C          7.4026497701        1.0065998782       -0.4507403091
 C          7.2398823073        1.9406794030       -1.4629159724
 C          5.9885881376        2.4712666446       -1.7383399596
 C          4.8889778747        2.0632907789       -0.9996919859
 H          3.8992624209        2.4555980159       -1.1741217105
 H          5.8641694129        3.1988928691       -2.5242515417
 H          8.0932964840        2.2595772081       -2.0402029151
 H          8.3775772377        0.5982498643       -0.2389175680
 H          6.3862317609       -0.1217173367        1.0921395539
 H          3.0122335328       -0.4626877587       -0.9245842819
 H          3.1088406750       -2.0931783675        2.3076443194
 H          1.1562107512       -3.3403327676        3.1847879531
 H         -0.9489215066       -3.4015060852        1.9056606130
 H         -2.1852205113       -2.9191890251        0.0376296818
 C         -1.3224209956       -2.7429542148       -1.9071523291
 C         -1.1190676114       -4.2086094771       -2.1431603570
 C         -2.4120088008       -3.5589019541       -2.5327569573
 H         -2.6243082009       -3.4149876745       -3.5815159982
 H         -3.2878187545       -3.7654580955       -1.9350443722
 H         -0.4408978593       -4.5145906742       -2.9246970814
 H         -1.1175878363       -4.8567387602       -1.2799414023
 H         -0.7944048845       -2.0501698533       -2.5489904066
