  62
        -98.94570263
 C          2.5613642609        0.1360990974        0.0698327005
 C          2.4284446509        1.1970200729       -0.8554059179
 C          1.9008100022        2.4547654442       -0.3176426093
 C          1.5796312421        2.5384682470        0.9864424093
 C          1.0169179356        3.7472820576        1.6834320106
 C         -0.5037406076        3.8878517219        1.5279806004
 C         -0.9720268197        4.3719044354        0.1548605713
 H         -2.0173545112        4.6692319598        0.2588844816
 H         -0.4057443891        5.2585505503       -0.1336219302
 C         -0.8741229011        3.3115592098       -0.9505404970
 H         -0.7995908493        2.3186855128       -0.4999248977
 H         -1.7937706036        3.3118561510       -1.5416681071
 C          0.2851528758        3.5067824440       -1.9281143091
 H          0.2852566200        2.6599728270       -2.6200491604
 H          0.1246175665        4.4184172528       -2.5093080601
 C          1.6695182843        3.5873427132       -1.2724950940
 H          1.7877506949        4.5433190233       -0.7623272693
 H          2.4235936383        3.5138138977       -2.0606468993
 H         -0.9656622135        2.9208962708        1.7435003738
 H         -0.8457592753        4.6022248904        2.2806440732
 H          1.5096001242        4.6489312803        1.3178292456
 H          1.2469669901        3.6284530419        2.7443448256
 O          1.7530800386        1.5055814334        1.8521398066
 C          2.2055872062        0.2721102305        1.4121795080
 O          2.2659855576       -0.6002575432        2.3006061066
 O          2.7361917783        1.0956639296       -2.0759732089
 C          2.9950405471       -1.2286111780       -0.4291281096
 C          1.8946352796       -2.2387073716       -0.2007452822
 C          2.1382589503       -3.5791461415        0.0695599913
 C          1.0839932731       -4.4572145182        0.2596536230
 C         -0.2262529035       -4.0205973811        0.2056669152
 C         -0.4806149949       -2.6779407331       -0.0587684000
 C          0.5751663822       -1.8141814453       -0.2900541295
 H          0.3640658531       -0.7814595456       -0.5260837495
 N         -1.7963788615       -2.1855144955       -0.0477467908
 S         -2.1332520981       -0.5706241193       -0.3476274256
 O         -1.8326645216       -0.2220034559       -1.7202543622
 O         -1.5121139050        0.2293729882        0.6774583303
 C         -3.8992353615       -0.5912911923       -0.1083786034
 C         -4.3862302217       -0.6168025783        1.1847727690
 C         -5.7567091595       -0.6607718795        1.3845887419
 C         -6.6132986480       -0.6787279924        0.2935476522
 C         -6.1104613165       -0.6498010072       -0.9983170261
 C         -4.7402583048       -0.6066633493       -1.2044936987
 H         -4.3028085741       -0.5745608478       -2.1893736807
 H         -6.7786043630       -0.6602126399       -1.8443052477
 H         -7.6796067765       -0.7124315968        0.4518575101
 H         -6.1507481733       -0.6801912146        2.3878773898
 H         -3.6809896040       -0.5924607960        1.9996061558
 H         -2.4943531209       -2.8220052092       -0.4017622831
 H         -1.0453750113       -4.7017737893        0.3746276465
 H          1.2881340261       -5.4973242038        0.4640403383
 H          3.1535288666       -3.9356523646        0.1335562678
 H          3.1346072896       -1.1130236821       -1.5156745977
 C          4.3150232877       -1.6400307631        0.1908216380
 C          5.3017751707       -2.4560062411       -0.5883999113
 C          5.5770305759       -1.0091456588       -0.3142029199
 H          6.3461661355       -0.7523508260        0.3984415104
 H          5.4840720146       -0.3056574139       -1.1289162269
 H          5.8876661007       -3.1948978522       -0.0627754057
 H          5.0354865707       -2.7355679020       -1.5966795420
 H          4.2328192303       -1.8121549299        1.2580870325
