  62
        -98.94121934
 C         -2.3551146003       -1.1052190570       -0.4313060520
 C         -3.6831258349       -1.0611926527        0.0608984181
 C         -4.5154104490        0.0467431997       -0.4241184350
 C         -3.9846267041        0.9426498435       -1.2763773200
 C         -4.6998392066        2.1529584510       -1.8016932089
 C         -4.4657504739        3.3724589475       -0.8991489925
 C         -4.7050571189        3.0980925695        0.5856578279
 H         -3.9526191693        2.3908398097        0.9431596022
 H         -4.5400315502        4.0363546527        1.1199321847
 C         -6.1048835044        2.5608409160        0.9151495518
 H         -6.4870589247        3.0935288851        1.7884612038
 H         -6.7845242028        2.7661477368        0.0873553626
 C         -6.1490160635        1.0686512672        1.2490501139
 H         -5.4014839770        0.8426743972        2.0137608864
 H         -7.1306275853        0.8444002055        1.6748078493
 C         -5.9340154199        0.1143143792        0.0676301986
 H         -6.6116567886        0.3784930181       -0.7465966060
 H         -6.1813470368       -0.8954732074        0.4078430680
 H         -3.4312321560        3.7016689647       -1.0226368555
 H         -5.1213491224        4.1791768671       -1.2320861263
 H         -4.3169427326        2.3725904253       -2.7996804385
 H         -5.7644174337        1.9377948152       -1.8702221778
 O         -2.7060412167        0.8699641872       -1.7253777587
 C         -1.8555227783       -0.1457017855       -1.3118996806
 O         -0.7123778760       -0.0821179054       -1.8037791691
 O         -4.1501584098       -1.9106130143        0.8659029815
 C         -1.4435072662       -2.2192919132        0.0565247430
 C         -0.3498607218       -1.5978949950        0.8890416570
 C         -0.6590341690       -1.1384377769        2.1669089813
 C          0.2941790712       -0.5008639936        2.9373202536
 C          1.5753449551       -0.3042318080        2.4506326679
 C          1.8908884881       -0.7512703134        1.1753735920
 C          0.9333342164       -1.4018093558        0.4060589476
 H          1.1872243791       -1.7299736457       -0.5893127931
 N          3.1930639113       -0.5699365818        0.6682613012
 S          3.9186240191        0.9369821316        0.9076951873
 O          4.4070705850        0.9955596644        2.2634675984
 O          3.0214750508        2.0018072939        0.5163694895
 C          5.2932228344        0.8247517897       -0.2203034788
 C          6.4660034695        0.2361325701        0.2129746657
 C          7.5246661228        0.1213626403       -0.6738215088
 C          7.3933799299        0.5934862637       -1.9713052110
 C          6.2101458243        1.1826514798       -2.3912896111
 C          5.1466639141        1.2991967674       -1.5099709118
 H          4.2108593870        1.7560158538       -1.7917343102
 H          6.1109412886        1.5507960334       -3.3998197434
 H          8.2186329539        0.5044329450       -2.6600447873
 H          8.4468861909       -0.3340587584       -0.3510533889
 H          6.5237176081       -0.1075800623        1.2323794441
 H          3.2428691168       -0.8234418200       -0.3099199469
 H          2.3246038244        0.2047152671        3.0349778285
 H          0.0401079011       -0.1481208722        3.9259095255
 H         -1.6640774873       -1.2770807402        2.5416445773
 H         -2.0674536720       -2.8362573072        0.7175032017
 C         -0.9439632057       -3.0789103678       -1.0847772336
 C         -0.3454770689       -4.4205150789       -0.7878917868
 C         -1.6913653426       -4.3278163038       -1.4398427680
 H         -1.7801799776       -4.5947827294       -2.4822326824
 H         -2.5640261154       -4.5710827392       -0.8518090877
 H          0.4909858020       -4.7561083104       -1.3815747312
 H         -0.3024145452       -4.7261860401        0.2464617641
 H         -0.5274329145       -2.5034026465       -1.9028325313
