  62
        -98.94515594
 C         -2.2659697598       -0.7390545800       -0.0106720285
 C         -3.2714288266       -0.6765035739        0.9871415423
 C         -4.1447922303        0.5030048977        0.9532273641
 C         -3.9216750325        1.4583386704        0.0324082751
 C         -4.7592445624        2.6910006506       -0.1441684020
 C         -5.8914548059        2.4538320807       -1.1535254024
 C         -6.6952463003        1.1799494497       -0.8922600744
 H         -7.4837996856        1.1332327770       -1.6464197708
 H         -6.0491977414        0.3130560973       -1.0486977250
 C         -7.3206749797        1.0994164473        0.5072947316
 H         -8.3526342265        0.7558269460        0.4099923317
 H         -7.3510233622        2.0924452183        0.9570146844
 C         -6.6174959442        0.1322992517        1.4615172817
 H         -6.5011805973       -0.8402604801        0.9768243805
 H         -7.2602514629       -0.0114587446        2.3339935815
 C         -5.2439008702        0.5820766243        1.9753077338
 H         -5.3165058793        1.5912628320        2.3856628106
 H         -4.9515756830       -0.0967142949        2.7817239097
 H         -6.5578836243        3.3180424917       -1.1333079583
 H         -5.4548919041        2.3847695635       -2.1526553460
 H         -5.1722743985        2.9841243977        0.8190925985
 H         -4.1167196078        3.4925272650       -0.5128086838
 O         -2.9233402318        1.3838367498       -0.8837220302
 C         -2.0782844104        0.2844235389       -0.9396613654
 O         -1.2287248672        0.3470452809       -1.8498855017
 O         -3.4314641392       -1.5684200128        1.8621238128
 C         -1.3435595931       -1.9477039040       -0.0179613800
 C          0.0350603752       -1.4894689116        0.3871998713
 C          0.3203757616       -1.3085150663        1.7380286210
 C          1.5502217612       -0.8237754952        2.1404594903
 C          2.5182128969       -0.4987295978        1.2054661472
 C          2.2363390694       -0.6578955182       -0.1439211410
 C          1.0085426474       -1.1685774861       -0.5452936957
 H          0.8000713113       -1.2756649707       -1.5978748336
 N          3.2063999788       -0.3189138658       -1.1029084800
 S          4.0077635206        1.1470051028       -0.9402407735
 O          3.2053789339        2.1299747746       -0.2493422390
 O          4.4409992510        1.4917074805       -2.2770751409
 C          5.4400143262        0.7304805125        0.0352428014
 C          5.7328699188        1.4534220249        1.1749516892
 C          6.8588049392        1.1182636516        1.9111711647
 C          7.6684178842        0.0722264014        1.4961432496
 C          7.3621249940       -0.6424845441        0.3476184374
 C          6.2389246529       -0.3116724349       -0.3932865492
 H          5.9678052495       -0.8394517591       -1.2921993790
 H          7.9939180139       -1.4555194528        0.0281794225
 H          8.5431694993       -0.1873054004        2.0712314958
 H          7.0982478408        1.6734927508        2.8038539371
 H          5.0710238688        2.2551208686        1.4623408471
 H          2.8868834860       -0.4424659085       -2.0532995385
 H          3.4747612454       -0.1073638590        1.5108757301
 H          1.7585608470       -0.6931000315        3.1915050706
 H         -0.4433378190       -1.5404871726        2.4672637862
 H         -1.7282755759       -2.6092450175        0.7698158767
 C         -1.3840244093       -2.6880136320       -1.3381160456
 C         -0.8226247473       -4.0753524115       -1.4171605982
 C         -2.3037122356       -3.8607796579       -1.4908893557
 H         -2.8005738281       -4.0045224333       -2.4387378577
 H         -2.9043683056       -4.1386931365       -0.6372866988
 H         -0.3003903137       -4.3705035559       -2.3143372315
 H         -0.4159060513       -4.4978863110       -0.5110350995
 H         -1.2644249355       -2.0408651633       -2.1986942511
