  62
        -98.93948239
 C         -1.6400985807       -1.0095099248        0.1272609927
 C         -2.6378025896       -0.7116298154        1.0820017052
 C         -3.3443490463        0.5708601208        0.9146960941
 C         -2.9855881494        1.3872276256       -0.0915011092
 C         -3.6076663925        2.7041528205       -0.4649681194
 C         -4.6877909253        2.5061112395       -1.5420697579
 C         -6.0821611239        2.1852929567       -1.0052166067
 H         -6.5010524692        3.0789106935       -0.5375923519
 H         -6.7119534829        1.9395293848       -1.8633394618
 C         -6.1491083111        1.0317248578       -0.0007292699
 H         -7.1765688867        0.6630552599        0.0169692749
 H         -5.5171298002        0.2092967668       -0.3408652399
 C         -5.7473757747        1.4463277680        1.4227020319
 H         -6.5186798792        1.1224156618        2.1245999492
 H         -5.7153634102        2.5343278507        1.4805909402
 C         -4.4180122649        0.8640021943        1.9268892773
 H         -4.0052718756        1.5292724193        2.6932576658
 H         -4.6045856341       -0.0964234115        2.4179406705
 H         -4.3555332993        1.7040319428       -2.2060143036
 H         -4.7577273334        3.4172181326       -2.1396897336
 H         -2.8087178653        3.3204788009       -0.8827801558
 H         -4.0122805336        3.2027214092        0.4109665576
 O         -1.9942920787        1.0762978208       -0.9710301651
 C         -1.3072908459       -0.1266486036       -0.9002678632
 O         -0.4433509055       -0.2776752108       -1.7810462190
 O         -2.9288915904       -1.4841604679        2.0364704729
 C         -0.8886245864       -2.3232642316        0.2277303972
 C          0.5976461752       -2.0887977034        0.3474220936
 C          1.5424392167       -2.8947184205       -0.2755178091
 C          2.8948075441       -2.6370876866       -0.1283493642
 C          3.3360540065       -1.5700645603        0.6317191245
 C          2.3992521996       -0.7556971568        1.2555310988
 C          1.0466034275       -1.0267871107        1.1220265244
 H          0.3232731786       -0.3901429484        1.6171548407
 N          2.8334299162        0.3522745916        2.0034002802
 S          4.0256894355        1.3165932059        1.3286149885
 O          5.3206674003        0.7753398351        1.6613558125
 O          3.7599991674        2.6489001044        1.8269690773
 C          3.7858461391        1.2439305939       -0.4383927980
 C          2.5350852472        1.5256757643       -0.9501103499
 C          2.3343750316        1.4438207505       -2.3178340492
 C          3.3878966003        1.0932360010       -3.1480746578
 C          4.6420746164        0.8262290322       -2.6213546681
 C          4.8446993883        0.8960627446       -1.2525869326
 H          5.7985233054        0.6820238272       -0.7981708344
 H          5.4587698592        0.5555027819       -3.2710042207
 H          3.2252277433        1.0249095563       -4.2120966200
 H          1.3501262896        1.6244675505       -2.7187389231
 H          1.7270604498        1.7925392928       -0.2868436947
 H          2.0812855049        0.9151503508        2.3726390262
 H          4.3849975944       -1.3532989928        0.7541063092
 H          3.6159062231       -3.2730641846       -0.6180907932
 H          1.2195077898       -3.7254530435       -0.8808606733
 H         -1.2370902037       -2.7897243093        1.1618367728
 C         -1.2598215534       -3.2244519715       -0.9328087849
 C         -1.3094813627       -4.7120006900       -0.7570805441
 C         -2.5804682776       -3.9318297384       -0.9010369948
 H         -3.1421811317       -4.0197570999       -1.8189247877
 H         -3.1967844736       -3.7892640468       -0.0251164366
 H         -1.0003156106       -5.3392186732       -1.5796169825
 H         -1.0691748403       -5.1101219507        0.2172055701
 H         -0.9259804316       -2.8301260465       -1.8860639542
