  62
        -98.93625567
 C         -1.8588255630       -1.2909925928       -0.0721565692
 C         -3.0203524462       -1.2575892516        0.7407203917
 C         -4.2138019268       -0.6013886951        0.1805799966
 C         -4.1482205276       -0.0836923988       -1.0577840174
 C         -5.2208959085        0.6642599306       -1.8000412674
 C         -5.0746523899        2.1803317205       -1.5856874549
 C         -5.7839653857        2.7273613350       -0.3475330385
 H         -5.4951969816        3.7759783579       -0.2444345114
 H         -6.8633306795        2.6997290517       -0.5110828684
 C         -5.4692897512        2.0001036198        0.9624566891
 H         -4.3987739029        1.7940823704        1.0216974619
 H         -5.7129729768        2.6742783757        1.7859081956
 C         -6.2635462711        0.6968091016        1.1356289528
 H         -6.7544219147        0.6999497625        2.1110571817
 H         -7.0581035761        0.6620979979        0.3904612528
 C         -5.4311048446       -0.5915084126        1.0643041416
 H         -6.0827824328       -1.4209709945        0.7695743338
 H         -5.0505557358       -0.8344000471        2.0614097723
 H         -4.0072829528        2.4100273368       -1.5297918705
 H         -5.4740995435        2.6982399907       -2.4600899670
 H         -5.0742710220        0.4475284209       -2.8602942955
 H         -6.2071831798        0.3186614351       -1.5051667111
 O         -3.0155263508       -0.1356380832       -1.8080238816
 C         -1.8461905933       -0.7224071137       -1.3460429749
 O         -0.9052218613       -0.6582694465       -2.1593638195
 O         -3.0583284518       -1.7623536042        1.8952664018
 C         -0.6413773150       -1.9864170183        0.5121146195
 C          0.3140813959       -1.0095648100        1.1473615324
 C          0.7955050066       -1.2172925165        2.4345253093
 C          1.6916757111       -0.3293933295        3.0049149283
 C          2.1288067982        0.7795917356        2.3031539073
 C          1.6540776638        0.9955231877        1.0155591367
 C          0.7534689216        0.1061089188        0.4473646673
 H          0.3912097169        0.2783509140       -0.5555550977
 N          2.0998133063        2.1158110549        0.2837524405
 S          3.7541584160        2.2404797870        0.0392283078
 O          4.3865380733        2.5969712397        1.2842182155
 O          3.9147056877        3.1760717611       -1.0499344846
 C          4.2627691262        0.6066772882       -0.4598218955
 C          4.6986500705       -0.2930253679        0.4923889169
 C          5.0160764410       -1.5826484552        0.0969846766
 C          4.8955211242       -1.9475227827       -1.2348345582
 C          4.4621501217       -1.0301066630       -2.1798420229
 C          4.1344973387        0.2582037194       -1.7897295280
 H          3.7923403905        1.0001966035       -2.4936331483
 H          4.3685287433       -1.3152735275       -3.2152953789
 H          5.1385972672       -2.9530173878       -1.5389847013
 H          5.3525540007       -2.2987561196        0.8290095190
 H          4.7871404962        0.0317175141        1.5157591548
 H          1.6209763266        2.2186542027       -0.6001557968
 H          2.8304887054        1.4792243721        2.7278325805
 H          2.0527916436       -0.5011999622        4.0073535169
 H          0.4525449519       -2.0755603215        2.9933614866
 H         -1.0475877128       -2.6182049677        1.3175310678
 C          0.0460727437       -2.9142449872       -0.4817740494
 C          1.3625128661       -2.6184401221       -1.1280781500
 C          1.2711705422       -3.6797839363       -0.0760648015
 H          1.3551867440       -4.7143490882       -0.3712496750
 H          1.6957504184       -3.4567757933        0.8909387019
 H          1.4877002053       -2.9114383734       -2.1589269400
 H          1.8616239962       -1.6954728211       -0.8794786537
 H         -0.6774821989       -3.4433679392       -1.0945124906
