  62
        -98.94295618
 C         -2.4982895645       -0.8659210868        0.4787121373
 C         -2.5541412078        0.3380717460       -0.2637443803
 C         -3.7132932526        1.1973853807        0.0087540938
 C         -4.6190957787        0.8281775489        0.9325732567
 C         -5.8410943004        1.6080107513        1.3360656465
 C         -7.0514508359        1.3899501549        0.4177218602
 C         -6.9499897869        2.0470943766       -0.9593623794
 H         -7.9434478430        2.0010184971       -1.4099590143
 H         -6.6954563444        3.1006422380       -0.8399230973
 C         -5.9464609767        1.3773359810       -1.9085198727
 H         -5.7060755760        0.3779406579       -1.5384582940
 H         -6.4038529985        1.2521958224       -2.8926165623
 C         -4.6462657924        2.1560654553       -2.1089610199
 H         -4.8607795564        3.1069219437       -2.6018026784
 H         -3.9965573471        1.5743040460       -2.7677571041
 C         -3.8744280464        2.4401066320       -0.8136775318
 H         -2.8748763285        2.7927245319       -1.0794571367
 H         -4.3782930767        3.2160311824       -0.2378557244
 H         -7.2101806005        0.3156704207        0.2982671151
 H         -7.9257938811        1.7998852286        0.9285350688
 H         -6.1064670748        1.2716803828        2.3406740156
 H         -5.6008671294        2.6707220863        1.3775799843
 O         -4.5132230507       -0.3266888397        1.6434176625
 C         -3.4653042121       -1.2058591618        1.4242026441
 O         -3.5003544360       -2.2353067062        2.1291763046
 H          0.9142130975       -1.6857137120       -1.3172749078
 C          1.0191229416       -1.1742111799       -0.3731430638
 C         -0.0358161364       -1.1531499982        0.5242332796
 C          0.1388051159       -0.4928082712        1.7379859962
 C          1.3287623149        0.1431814833        2.0322528556
 C          2.3736914943        0.1362777545        1.1240758588
 C          2.2164485858       -0.5299838864       -0.0823363299
 N          3.2664867461       -0.5362564682       -1.0130008752
 S          4.8281109327       -0.8562137205       -0.4966704867
 O          5.5129790832       -1.3609601412       -1.6667024727
 O          4.8363226928       -1.7086285753        0.6694097428
 C          5.4874739182        0.7467362306       -0.0887294260
 C          5.4606291375        1.7287395863       -1.0594818430
 C          5.9811863080        2.9779625239       -0.7622522656
 C          6.5198890008        3.2220960264        0.4923512274
 C          6.5428781465        2.2246489574        1.4549461839
 C          6.0226360951        0.9730408124        1.1641119546
 H          6.0160151442        0.1689264309        1.8829106609
 H          6.9628021780        2.4161773374        2.4294036875
 H          6.9245127793        4.1954771051        0.7209110872
 H          5.9651634361        3.7561860963       -1.5082856052
 H          5.0374308950        1.4988549567       -2.0230801071
 H          3.0547871691       -1.0205985825       -1.8728615227
 H          3.3027584002        0.6352889148        1.3455931704
 H          1.4450099800        0.6537667463        2.9763392981
 H         -0.6781333038       -0.4842330036        2.4473078160
 C         -1.3539548739       -1.8381329745        0.2558977711
 H         -1.4796162516       -2.6335965008        1.0050880060
 C         -1.4585303045       -2.4510492582       -1.1251871149
 C         -0.8878015095       -3.8104715754       -1.3934722693
 C         -2.3728996750       -3.6198424928       -1.3291809105
 H         -2.9413305441       -3.6772826439       -2.2453589190
 H         -2.9016388249       -3.9919829887       -0.4635770495
 H         -0.4390083518       -4.0032055801       -2.3566340759
 H         -0.4058497608       -4.3214261544       -0.5733995842
 H         -1.4128298397       -1.7096971141       -1.9149993145
 O         -1.6857894936        0.6792788690       -1.1078279632
