  62
        -98.94628580
 C         -2.5705707700        0.0072832854        0.4347870421
 C         -2.1949611927        0.5816877408       -0.8034946241
 C         -1.8863342464        2.0164968417       -0.7725356908
 C         -1.9586026014        2.6917140742        0.3891064954
 C         -1.7325282531        4.1683868267        0.5746060894
 C         -0.2593870002        4.5688416586        0.7259653055
 C          0.5613668536        4.5108680481       -0.5623413965
 H          0.0397024798        5.0535225621       -1.3515893352
 H          1.5001550345        5.0338273776       -0.3697816933
 C          0.8811837231        3.0877189924       -1.0383394450
 H          0.7458525063        2.3794720731       -0.2168410106
 H          1.9334994281        3.0221445121       -1.3264393668
 C          0.0649520153        2.6080551807       -2.2385483310
 H          0.3448706967        1.5682118716       -2.4276417388
 H          0.3281524913        3.1977964777       -3.1204665218
 C         -1.4556626110        2.6731742478       -2.0490630937
 H         -1.7925939124        3.7101643095       -2.0752356316
 H         -1.9248290718        2.1299518736       -2.8735398243
 H         -0.2371985981        5.5941168695        1.1030046338
 H          0.2030055106        3.9242421707        1.4773711014
 H         -2.1736008410        4.7114094855       -0.2621039926
 H         -2.2610662885        4.4475409091        1.4887982101
 O         -2.2977233278        2.0954358942        1.5637113763
 C         -2.5898225339        0.7428094992        1.6182030665
 O         -2.8617587640        0.3207489324        2.7623318143
 H         -0.3271511935       -1.0200657341        0.9576688722
 C         -0.4694321993       -1.9077761441        0.3589192019
 C         -1.7561744551       -2.3025640259        0.0180329798
 C         -1.9170717690       -3.4551234999       -0.7407575529
 C         -0.8119035080       -4.1720240351       -1.1656875822
 C          0.4685790478       -3.7500435390       -0.8589624208
 C          0.6395928092       -2.6053276987       -0.0891011139
 N          1.9277528410       -2.1456955081        0.2598677943
 S          2.2186555230       -0.4957078356        0.0085658377
 O          1.5716071937        0.2672459661        1.0463520983
 O          1.8983585704       -0.1488288417       -1.3568712378
 C          3.9843812421       -0.4488747632        0.2545118007
 C          4.4682972421       -0.5968654779        1.5405877487
 C          5.8386704455       -0.5914568667        1.7455002353
 C          6.6976705125       -0.4378924022        0.6670056160
 C          6.1971700021       -0.2871712943       -0.6172141458
 C          4.8270525003       -0.2942814432       -0.8292325193
 H          4.3905740538       -0.1763276870       -1.8080554815
 H          6.8669023454       -0.1644935146       -1.4530426737
 H          7.7638573820       -0.4333376464        0.8295556530
 H          6.2309070153       -0.7060564732        2.7430962763
 H          3.7617447068       -0.7040835302        2.3471621055
 H          2.6503692637       -2.6815325277       -0.2055727294
 H          1.3293071841       -4.2984223485       -1.2116279617
 H         -0.9499245008       -5.0634522067       -1.7587634376
 H         -2.9073365673       -3.7868882903       -1.0072977579
 C         -2.9134708728       -1.4688987773        0.5133934405
 H         -3.0596691051       -1.6903829468        1.5816899616
 C         -4.2087581223       -1.7438755803       -0.2238254924
 C         -5.1340878571       -2.8261051641        0.2432658282
 C         -5.5043113063       -1.3876106179        0.4391772354
 H         -6.2946936386       -0.9681675598       -0.1647770170
 H         -5.4498241954       -0.9738372692        1.4359066895
 H         -4.8407335710       -3.3942373392        1.1130935859
 H         -5.6763518417       -3.3954952448       -0.4965390266
 H         -4.1242195896       -1.5619953570       -1.2892198085
 O         -2.1437636081       -0.0646784137       -1.8834319323
