  62
        -98.94346037
 C         -2.2807740505       -0.6136486595        0.0190424505
 C         -3.1641640104       -0.2489852605        1.0712625910
 C         -4.0855343705        0.8576755298        0.7983316721
 C         -4.0432951606        1.4780961609       -0.3942201073
 C         -4.8988787007        2.6392117313       -0.8222025161
 C         -6.2789108207        2.2331821818       -1.3575316964
 C         -7.2694765206        1.7460548507       -0.2992254368
 H         -7.3274247906        2.4782694600        0.5067072939
 H         -8.2516371607        1.7062939712       -0.7744338067
 C         -6.9462925705        0.3622009902        0.2814288719
 H         -7.8556303505       -0.2423930898        0.3092524914
 H         -6.2406292106       -0.1524029392       -0.3749091486
 C         -6.3751574404        0.3866312389        1.6992912819
 H         -7.1251282903        0.7785639782        2.3898116723
 H         -6.1491681903       -0.6409135814        1.9952234809
 C         -5.0926258004        1.2152709488        1.8493105425
 H         -4.6507912703        0.9911807979        2.8231560923
 H         -5.3248863804        2.2791263388        1.8064090536
 H         -6.7075814408        3.1091334422       -1.8498860955
 H         -6.1452333108        1.4582490825       -2.1159526971
 H         -5.0198705206        3.3315668005        0.0114165545
 H         -4.3555358108        3.1479857520       -1.6214436057
 O         -3.1718012607        1.1152817618       -1.3700708277
 C         -2.2857475307        0.0600913817       -1.2020466388
 O         -1.5773916308       -0.1470299374       -2.2097120491
 O         -3.1814051503       -0.8291897815        2.1887723604
 C         -1.3493178805       -1.7814885597        0.2964960994
 C          0.0475517895       -1.3270668100        0.6490856596
 C          0.6156648797       -1.6594267812        1.8732724493
 C          1.9062903997       -1.2661417714        2.1812150295
 C          2.6534834596       -0.5296574906        1.2797013601
 C          2.0940174795       -0.1891965094        0.0549997405
 C          0.8033622194       -0.5937563992       -0.2545654997
 H          0.3744752193       -0.3273120783       -1.2094050695
 N          2.8337799893        0.5827024215       -0.8597433588
 S          4.3626338493        0.0364560919       -1.2901610995
 O          4.6328428292        0.6336093031       -2.5797084690
 O          4.4501159394       -1.4041106682       -1.2183086309
 C          5.4384599094        0.7718010308       -0.0763592689
 C          5.4148512194        2.1451057606        0.0692509924
 C          6.2539258295        2.7331808198        1.0022055228
 C          7.0999936596        1.9432369691        1.7665663620
 C          7.1145034196        0.5662383592        1.6056706807
 C          6.2766906995       -0.0285228199        0.6749917803
 H          6.2487811095       -1.0950727398        0.5187008293
 H          7.7733246797       -0.0459747613        2.2002765201
 H          7.7520778596        2.4039792984        2.4916833024
 H          6.2455143795        3.8036763296        1.1301665639
 H          4.7454077093        2.7223640112       -0.5465961770
 H          2.3051885093        0.8307978322       -1.6843515886
 H          3.6575952696       -0.2170503608        1.5154395303
 H          2.3345975098       -1.5327596623        3.1352400492
 H          0.0342631397       -2.2223877618        2.5886969288
 H         -1.7708213304       -2.2743576306        1.1830763189
 C         -1.3023695706       -2.7927864286       -0.8334363416
 C         -0.8926169505       -4.2018122389       -0.5320749530
 C         -2.3178953306       -3.8930181086       -0.8779479225
 H         -2.6977270207       -4.2042170577       -1.8395350128
 H         -3.0529362505       -3.9261742894       -0.0868820825
 H         -0.2879426606       -4.7270493982       -1.2554640235
 H         -0.6620131004       -4.4471485899        0.4934779768
 H         -0.9878297507       -2.3684997778       -1.7784104312
