  62
        -98.93977209
 C         -2.2138233499       -0.7985326136        0.1383174609
 C         -2.4300736132        0.3494838843        0.9371109302
 C         -3.1033617296        1.4759582813        0.2779098932
 C         -3.4292879030        1.3747828524       -1.0239328775
 C         -4.1616515888        2.4243332673       -1.8076796452
 C         -5.6792755189        2.1996702088       -1.7530397621
 C         -6.2211833198        1.9804726788       -0.3404942827
 H         -7.3041312663        1.8649609785       -0.4219251087
 H         -5.8265904022        1.0399162930        0.0506547912
 C         -5.9003811296        3.1126094915        0.6452759142
 H         -5.6203073235        4.0129032018        0.0972497551
 H         -6.8022836551        3.3471284198        1.2145264928
 C         -4.8073443652        2.7775038329        1.6617283829
 H         -5.0387660278        1.8264057150        2.1479109096
 H         -4.8137753505        3.5501141259        2.4352192396
 C         -3.3799614833        2.6998781292        1.1054676383
 H         -3.1558965296        3.6066662153        0.5399897689
 H         -2.6946686632        2.6468864772        1.9566328585
 H         -6.1720209147        3.0629162920       -2.2039995068
 H         -5.9204285461        1.3189600214       -2.3527007959
 H         -3.9150197157        3.4066882963       -1.4096220227
 H         -3.8322790750        2.3692704544       -2.8465742248
 O         -3.1640199756        0.2732396661       -1.7710705645
 C         -2.5553145864       -0.8421929251       -1.2138935236
 O         -2.3772408283       -1.7804279749       -2.0121574017
 H          0.4090506877       -0.2249547175        0.5502289222
 C          0.7034660825       -1.1611657209        0.0914089773
 C         -0.1923317529       -2.2243773997        0.1042184263
 C          0.1978960249       -3.4249199492       -0.4717387202
 C          1.4452464197       -3.5437568883       -1.0616654829
 C          2.3261178781       -2.4790721834       -1.0878689701
 C          1.9507925191       -1.2757367566       -0.5026854034
 N          2.8299483098       -0.1735014117       -0.5328386576
 S          4.4295813182       -0.4609348195       -0.0654221756
 O          5.1153949490       -1.1075235796       -1.1553892974
 O          4.4601079492       -1.1582927273        1.2015280279
 C          5.0341488805        1.2038919265        0.1239778046
 C          5.0865391995        1.7684841004        1.3840681461
 C          5.5380918517        3.0724132440        1.5156723680
 C          5.9235702674        3.7861078717        0.3908987674
 C          5.8652915079        3.2052902777       -0.8674514645
 C          5.4165383120        1.9015926945       -1.0059770702
 H          5.3626932799        1.4064795549       -1.9613792595
 H          6.1683971040        3.7628415476       -1.7389284700
 H          6.2751021645        4.8002887765        0.4964408461
 H          5.5877049157        3.5250715789        2.4929081393
 H          4.7842791894        1.1740816510        2.2315518921
 H          2.4553084426        0.6104327675       -0.0146691073
 H          3.2996628916       -2.5649557783       -1.5423006477
 H          1.7351869792       -4.4815456382       -1.5114097757
 H         -0.4739117066       -4.2671781845       -0.4659548102
 C         -1.5335199758       -2.0047301725        0.7614466621
 H         -1.3512991824       -1.7261386463        1.8102579818
 C         -2.4407145993       -3.2153769421        0.7314854016
 C         -2.2624989084       -4.3099225192        1.7395047222
 C         -3.4455724524       -3.3947726718        1.8283771884
 H         -4.4204884996       -3.7838477945        1.5758241059
 H         -3.4618077350       -2.6535008525        2.6141699741
 H         -2.4266246267       -5.3303088563        1.4278909391
 H         -1.4745173942       -4.1934287438        2.4682357497
 H         -2.7442074086       -3.4867408819       -0.2730564917
 O         -2.0699195053        0.4307928979        2.1435776504
