  62
        -98.93500388
 C         -2.7111181699       -0.0875899613        0.0723066094
 C         -2.1216755799        0.7196666588       -0.9316581706
 C         -1.8544895403        2.1182228588       -0.5569145907
 C         -2.1779087306        2.5624500488        0.6692322793
 C         -1.9830250010        3.9564794189        1.2032699392
 C         -0.5173646111        4.4024809193        1.3715090894
 C          0.0390087088        5.1968782593        0.1834297294
 H         -0.7924698312        5.6547610791       -0.3538035608
 H          0.6552873486        6.0136501695        0.5645282894
 C          0.9064235792        4.4041573595       -0.7998071704
 H          1.0179658191        5.0035736995       -1.7062772105
 H          1.9013495391        4.2673281598       -0.3697649803
 C          0.3867650895        3.0184127893       -1.1856690404
 H          0.5690836296        2.3106798594       -0.3721826603
 H          0.9758375297        2.6494503594       -2.0289883703
 C         -1.1113777104        2.9675800190       -1.5464752406
 H         -1.5333458506        3.9710605188       -1.5873261607
 H         -1.2391490402        2.4963715589       -2.5233047906
 H         -0.4767268414        5.0377042894        2.2578622193
 H          0.1039716790        3.5282113694        1.5681485295
 H         -2.5074121311        4.6611893588        0.5542103991
 H         -2.4755261511        3.9671084189        2.1776601391
 O         -2.7745888105        1.7642297188        1.5962656792
 C         -3.0182391902        0.4290622987        1.3342449793
 O         -3.5278682302       -0.1914796814        2.2907682793
 H         -0.3664270995       -1.1805437208       -0.7727387802
 C         -0.4817871594       -1.9858376208       -0.0633577402
 C         -1.7430563494       -2.3425836811        0.3910795596
 C         -1.8559873693       -3.3929930110        1.2941015297
 C         -0.7293991892       -4.0575962907        1.7447018599
 C          0.5293170008       -3.6724670605        1.3212867100
 C          0.6519385207       -2.6275617805        0.4116375700
 N          1.9132851706       -2.2109345102       -0.0426726699
 S          2.1436967503       -0.5551003202       -0.3082902599
 O          1.4776729000        0.2090022597        0.7234026299
 O          1.8037112604       -0.2536733104       -1.6738180300
 C          3.9142818902       -0.4536483897       -0.1108732297
 C          4.4469050300       -0.0142470895        1.0858484303
 C          5.8249559799        0.0197565508        1.2343948905
 C          6.6421358102       -0.3883508191        0.1910789607
 C          6.0929866604       -0.8260724993       -1.0052278794
 C          4.7165212205       -0.8601010096       -1.1608836796
 H          4.2432363107       -1.1824335698       -2.0736851196
 H          6.7310575006       -1.1399664692       -1.8154180893
 H          7.7137560301       -0.3625859088        0.3099984308
 H          6.2542425597        0.3631732110        2.1617669206
 H          3.7720076998        0.2978152704        1.8668512002
 H          2.6747290107       -2.6141768100        0.4864521803
 H          1.4114046609       -4.1723976802        1.6917263402
 H         -0.8307132491       -4.8692364807        2.4490224399
 H         -2.8330851192       -3.6709823713        1.6603017596
 C         -2.9637883395       -1.5803887814       -0.0716176106
 H         -3.7837581395       -1.8161566415        0.6218754993
 C         -3.3697980392       -2.0286322416       -1.4608679106
 C         -4.1593167889       -3.2928517318       -1.6142825406
 C         -4.8109757292       -1.9665082220       -1.8635133608
 H         -5.0472951791       -1.6847110621       -2.8783179009
 H         -5.5170900494       -1.5992800021       -1.1327971609
 H         -3.9481549386       -3.9291457718       -2.4597846806
 H         -4.4302687689       -3.8279121218       -0.7168520006
 H         -2.6313566092       -1.7989686515       -2.2174513605
 O         -1.8304185997        0.3248956587       -2.0921352905
