  62
        -98.94312137
 C         -1.9954221688       -1.0014254009        0.6028620301
 C         -2.8828922788       -1.0567440910       -0.4997262699
 C         -4.2182612190       -0.4797275913       -0.2765114498
 C         -4.5154047991        0.0718624686        0.9133087602
 C         -5.8163977092        0.7390092983        1.2514706303
 C         -5.7697724895        2.2425820683        0.9456182604
 C         -5.2394336996        2.5741148985       -0.4493561396
 H         -5.2825040598        3.6595243685       -0.5637927796
 H         -4.1866563295        2.2875871987       -0.5084734397
 C         -6.0110175795        1.9080101284       -1.5971477197
 H         -6.1861694097        2.6509574784       -2.3781187096
 H         -6.9872462694        1.5747951581       -1.2429165697
 C         -5.2820120792        0.7343008486       -2.2537101097
 H         -5.8064456892        0.4843008385       -3.1798280197
 H         -4.2675274393        1.0381872788       -2.5239775597
 C         -5.1947194190       -0.5482184215       -1.4170660898
 H         -6.1886984889       -0.8210838017       -1.0569986598
 H         -4.8345454388       -1.3467283114       -2.0721306798
 H         -5.1225845896        2.7262063184        1.6811133104
 H         -6.7763206196        2.6491354381        1.0601415704
 H         -6.6175031791        0.2677490981        0.6853191203
 H         -6.0067911691        0.6002456382        2.3171338803
 O         -3.6316979390        0.1243033487        1.9426660302
 C         -2.3576084689       -0.3970342810        1.8102957302
 O         -1.6459043389       -0.2712479909        2.8283207602
 H          1.0503324709        0.2603687297        1.6521086501
 C          1.0983860409        0.3022935998        0.5717119801
 C          0.3102893411       -0.5630364204       -0.1750022999
 C          0.3625140210       -0.4847289803       -1.5620479599
 C          1.1832107608        0.4424131699       -2.1796588199
 C          1.9726046106        1.2990821500       -1.4330089398
 C          1.9249881407        1.2292706600       -0.0470053498
 N          2.7524959105        2.0779139101        0.7151327002
 S          4.3898263005        2.0005215905        0.3549292002
 O          5.0723304305        2.3814624105        1.5712710802
 O          4.6641556603        2.8121693206       -0.8038937098
 C          4.6747845809        0.2802760705       -0.0232277899
 C          4.9100126409       -0.1106340193       -1.3253956400
 C          5.0463913612       -1.4610833193       -1.6047094900
 C          4.9406571414       -2.3920765194       -0.5835455201
 C          4.7096317214       -1.9829500895        0.7210378599
 C          4.5716568711       -0.6345508395        1.0061426700
 H          4.3960432010       -0.2806670796        2.0097105100
 H          4.6315620915       -2.7093882395        1.5142926599
 H          5.0391598817       -3.4432985893       -0.8034200701
 H          5.2281230213       -1.7824162692       -2.6174928600
 H          4.9838775908        0.6452569307       -2.0897072599
 H          2.6057579606        1.9902968800        1.7105695302
 H          2.6226769505        2.0225116402       -1.8982367198
 H          1.2098986908        0.4983222400       -3.2571908999
 H         -0.2647674689       -1.1354371804       -2.1497165499
 C         -0.5774837387       -1.5497902506        0.5442366301
 H         -0.2400122687       -1.5974380606        1.5882222001
 C         -0.4882474884       -2.9409062305       -0.0498040300
 C          0.7831126417       -3.7134390903        0.1298386199
 C         -0.4556350182       -4.1259233806        0.8654557899
 H         -0.9640443280       -5.0273142107        0.5575418599
 H         -0.5058814582       -3.9403267606        1.9287874399
 H          1.5757703416       -3.2418851101        0.6914545399
 H          1.1280313418       -4.3328084702       -0.6832298101
 H         -1.0207298784       -3.0513473206       -0.9842938000
 O         -2.6002582488       -1.5625808309       -1.6164737299
