  62
        -98.94043321
 C         -1.1350088768       -1.0676543657       -0.5128765357
 C         -2.2798488886       -1.2689280014        0.2973073434
 C         -3.1011860703       -0.0890046233        0.6127156415
 C         -2.7247632011        1.1159004694        0.1464772394
 C         -3.3157203787        2.4950312285        0.3551006391
 C         -4.7265134092        2.6642495563        0.9132687897
 C         -5.8428382495        2.1711950564       -0.0067184842
 H         -6.7892712479        2.2540768235        0.5320120764
 H         -5.8948025944        2.8325692906       -0.8751308637
 C         -5.6881593617        0.7430544384       -0.5233509049
 H         -6.5482421972        0.5239353595       -1.1617913578
 H         -4.7963403550        0.6741024519       -1.1494324487
 C         -5.6219189675       -0.3382666248        0.5535017376
 H         -5.6791516536       -1.3070365479        0.0501559618
 H         -6.4868979260       -0.2534394006        1.2141165670
 C         -4.3458787067       -0.3411184376        1.4140360341
 H         -4.2326568924       -1.3384904649        1.8490666048
 H         -4.4205161954        0.3651496115        2.2379570977
 H         -4.8735786842        3.7370771931        1.0657116591
 H         -4.8025480509        2.1956646954        1.8901402318
 H         -2.6157491023        3.0157506355        1.0189406040
 H         -3.2526233332        2.9967927130       -0.6158294240
 O         -1.6094858971        1.2667578636       -0.6215916314
 C         -0.7898525481        0.2037772401       -0.9686497655
 O          0.1754961372        0.5414277750       -1.6810332663
 O         -2.6074063949       -2.4022182913        0.7447956206
 C         -0.2791797507       -2.2911395903       -0.7952448496
 C          0.8256389306       -2.3906843737        0.2301565682
 C          1.0018059930       -3.5388638332        0.9929880747
 C          1.9921294004       -3.5957938599        1.9579488870
 C          2.8036091656       -2.5018421092        2.1990802544
 C          2.6339735321       -1.3492528905        1.4403104316
 C          1.6721444283       -1.3123584226        0.4432150234
 H          1.5558470097       -0.4166887507       -0.1446378213
 N          3.4241478182       -0.2107408165        1.6557742494
 S          2.7265659731        1.3067512137        1.5024254613
 O          3.5759116737        2.1681128419        2.3035396862
 O          1.3299054443        1.2955541927        1.8761774751
 C          2.9440306081        1.7529419716       -0.2049963420
 C          4.0242357220        1.2517608454       -0.9031748381
 C          4.2153603065        1.6538901943       -2.2148268044
 C          3.3337118500        2.5500715095       -2.7992769831
 C          2.2581466564        3.0476098301       -2.0820571136
 C          2.0584576144        2.6459704934       -0.7713315427
 H          1.2214366334        2.9938530302       -0.1864585784
 H          1.5658305623        3.7365514930       -2.5387678389
 H          3.4817560520        2.8592368021       -3.8221817931
 H          5.0479525194        1.2638716916       -2.7782486634
 H          4.6853119498        0.5514034901       -0.4201516334
 H          4.0446937115       -0.2597373771        2.4509272729
 H          3.5564088496       -2.5335240926        2.9719506265
 H          2.1196818943       -4.4931621794        2.5441687983
 H          0.3436886555       -4.3815299201        0.8410669275
 H         -0.9455835622       -3.1530494505       -0.6530420664
 C          0.2872105581       -2.3460555085       -2.1999057099
 C          0.6637240405       -3.6749031021       -2.7807912438
 C         -0.5355603483       -2.9418677919       -3.3009411677
 H         -0.4851885181       -2.4915073930       -4.2806314632
 H         -1.5151135559       -3.3187454210       -3.0444383926
 H          1.5418504924       -3.7317669180       -3.4050652192
 H          0.4961286995       -4.5527520403       -2.1755029564
 H          0.9050417192       -1.4926308677       -2.4460683441
