  62
        -98.94151561
 C          2.3871369099        1.2306225982        0.1648236913
 C          3.3203792541        0.5539788361        0.9907096345
 C          4.0981775572       -0.5172991520        0.3547923107
 C          3.8689390184       -0.8155364649       -0.9367891630
 C          4.5459233639       -1.9193788079       -1.6954625706
 C          3.7476493252       -3.2272488538       -1.6017363417
 C          3.3416140034       -3.6023681074       -0.1763005491
 H          2.6284881742       -2.8627458769        0.1965347332
 H          2.8115037472       -4.5559761334       -0.2295391539
 C          4.5137624823       -3.7207856138        0.8082523070
 H          4.3802466747       -4.6270909156        1.4025576391
 H          5.4489039040       -3.8289278833        0.2578603254
 C          4.6367078727       -2.5561511591        1.7926251888
 H          3.6729331590       -2.3848832987        2.2791667482
 H          5.3488005645       -2.8429711389        2.5708445487
 C          5.1198410070       -1.2270996635        1.1983224179
 H          6.0394032417       -1.3900447127        0.6327604071
 H          5.3418023782       -0.5533624224        2.0310845857
 H          2.8384533102       -3.1226019544       -2.1990163887
 H          4.3474813758       -4.0301584352       -2.0339523730
 H          4.6176786467       -1.6230054601       -2.7432579636
 H          5.5488724146       -2.0642055455       -1.2985322732
 O          2.9440815284       -0.1693510743       -1.6899539351
 C          2.1680387286        0.8571163720       -1.1625379155
 O          1.3477012323        1.3306500730       -1.9694216100
 O          3.4894248720        0.8291372006        2.2090313226
 C          1.5556648621        2.3312187862        0.8006004463
 C          0.0964302811        2.1240252017        0.4796630207
 C         -0.6962532306        3.0621694935       -0.1666651527
 C         -2.0241154747        2.7845981109       -0.4422178474
 C         -2.5898880124        1.5767344779       -0.0790584197
 C         -1.8044267205        0.6278385588        0.5626579158
 C         -0.4778148514        0.9118057382        0.8441618536
 H          0.1359560113        0.1688147499        1.3405397926
 N         -2.3696727725       -0.6025248176        0.9440637855
 S         -3.2404288958       -1.4687402523       -0.2025232242
 O         -3.1635338784       -2.8461895794        0.2356487719
 O         -2.7842025744       -1.1950504279       -1.5451892344
 C         -4.9095750457       -0.8869242817        0.0123795212
 C         -5.5995226271       -0.3606598798       -1.0619627395
 C         -6.8992071876        0.0826094017       -0.8712444197
 C         -7.4825663175       -0.0088124190        0.3831778556
 C         -6.7770603028       -0.5432536050        1.4511201469
 C         -5.4779829759       -0.9887933507        1.2670916760
 H         -4.8966880011       -1.4135955013        2.0682450851
 H         -7.2342020689       -0.6133560921        2.4249575012
 H         -8.4933362623        0.3380605121        0.5290140968
 H         -7.4490650315        0.4976511848       -1.7005943082
 H         -5.1023443666       -0.3045593992       -2.0175197976
 H         -1.7227290891       -1.2113649724        1.4245703228
 H         -3.6212532958        1.3556658876       -0.2999118571
 H         -2.6270332750        3.5201686481       -0.9525228061
 H         -0.2685815371        4.0000602390       -0.4799557260
 H          1.6860897844        2.1745925967        1.8850534862
 C          2.0476939099        3.7410223188        0.5110812712
 C          3.4896017809        4.0071870606        0.2007409661
 C          2.4488858984        4.1899600657       -0.8609038806
 H          2.1990163973        5.1966434109       -1.1629465025
 H          2.3918501908        3.4679830074       -1.6600240461
 H          3.9524898670        4.8846091534        0.6268012199
 H          4.1515947374        3.1564787608        0.1265996632
 H          1.5504981479        4.4763833475        1.1362382549
