  62
        -98.94310158
 C         -2.5606671363       -0.1662181053        0.5339187785
 C         -2.1981951181        0.3707095958       -0.7270229613
 C         -1.9716238079        1.8240726766       -0.7656659819
 C         -2.0694785675        2.5407510811        0.3673375762
 C         -1.8343299766        4.0192530110        0.4778406353
 C         -0.3753900903        4.3352623682        0.8316799608
 C          0.6481657262        3.6284869264       -0.0574242644
 H          1.6376631914        3.9783080732        0.2473219472
 H          0.6216127422        2.5531182005        0.1375820764
 C          0.4604263575        3.8695489746       -1.5618006870
 H          1.4378446834        4.0688812824       -2.0058162957
 H         -0.1576200372        4.7541780933       -1.7236270904
 C         -0.1370522241        2.6799891631       -2.3162449607
 H          0.4007229212        1.7705625275       -2.0377698552
 H          0.0130603761        2.8428178059       -3.3872269171
 C         -1.6354815293        2.4354918134       -2.0965633992
 H         -2.1888188327        3.3663301957       -2.2433058188
 H         -1.9674132849        1.7141086730       -2.8491520376
 H         -0.2329452146        5.4158638855        0.7639080106
 H         -0.1952021411        4.0313357321        1.8657542002
 H         -2.1009086383        4.4931554180       -0.4650403022
 H         -2.4810661756        4.4088825352        1.2663740275
 O         -2.3745841911        1.9848005973        1.5692696997
 C         -2.6047493030        0.6242755070        1.6836033084
 O         -2.8427436457        0.2438135964        2.8493866305
 H         -0.2124049858       -1.2339603423        1.1425187572
 C         -0.3568760597       -2.0303140741        0.4249403892
 C         -1.6477713635       -2.4111890825        0.0797336247
 C         -1.8134242542       -3.4400100163       -0.8370544712
 C         -0.7084872165       -4.0480401563       -1.4086389442
 C          0.5730570102       -3.6351519355       -1.0954970244
 C          0.7483971855       -2.6118779306       -0.1701886771
 N          2.0339992339       -2.1606623624        0.1860991393
 S          2.2021878759       -0.4967251067        0.4434438604
 O          1.8284285184       -0.1975391593        1.8050159681
 O          1.5171961994        0.2411659050       -0.5905073752
 C          3.9673477181       -0.3152823701        0.2658436050
 C          4.4842033910        0.2800568536       -0.8686569789
 C          5.8599248884        0.3932158383       -0.9984599582
 C          6.6897772711       -0.0912812735        0.0010769250
 C          6.1557672911       -0.6862269515        1.1349101096
 C          4.7816923919       -0.8003393627        1.2721047534
 H          4.3201688840       -1.2444020185        2.1386727781
 H          6.8038714649       -1.0594920213        1.9112647470
 H          7.7596079739       -0.0024672577       -0.1025478000
 H          6.2771300013        0.8581554721       -1.8770550684
 H          3.7986312319        0.6457183581       -1.6162904659
 H          2.7495442889       -2.5038915013       -0.4412132167
 H          1.4308018392       -4.0929841696       -1.5646674507
 H         -0.8495023907       -4.8420196080       -2.1264280007
 H         -2.8049327080       -3.7468689357       -1.1268941957
 C         -2.7806997097       -1.6577408238        0.7330361714
 H         -2.6932839188       -1.8088811247        1.8227806805
 C         -4.1614925097       -2.1587359455        0.3377840915
 C         -5.3409606484       -1.2337830057        0.3151566497
 C         -4.8062818257       -1.7974243609       -0.9652547291
 H         -5.3896543395       -2.5518724715       -1.4727697345
 H         -4.2576733302       -1.1470405027       -1.6271865927
 H         -5.1604129575       -0.1903015224        0.5307100133
 H         -6.2860447127       -1.5998303643        0.6874965532
 H         -4.3486854303       -3.1605658597        0.7124850722
 O         -2.0874609526       -0.3134998992       -1.7769930642
