  62
        -98.94230410
 C         -1.5013079894       -1.3281146810        0.2899140496
 C         -2.1889087498       -0.8719432007       -0.8606333701
 C         -3.2185087103        0.1517941786       -0.6235336694
 C         -3.4536493703        0.5755061978        0.6318612609
 C         -4.4265734908        1.6558064972        1.0049989516
 C         -3.7431057715        3.0303329475        1.0272705922
 C         -2.9139487318        3.3255364886       -0.2228380977
 H         -2.4977484023        4.3290661087       -0.1098696873
 H         -2.0710139815        2.6312880290       -0.2640289182
 C         -3.7006852619        3.2432210989       -1.5387193477
 H         -4.7703500519        3.3004343682       -1.3339730675
 H         -3.4424293125        4.1064991993       -2.1558268373
 C         -3.4124341414        1.9955512194       -2.3763179584
 H         -3.8544043116        2.1420543598       -3.3655069883
 H         -2.3334703214        1.8873800101       -2.5161409086
 C         -3.9608715807        0.6748502889       -1.8209031390
 H         -5.0248154907        0.7822062282       -1.6003495288
 H         -3.8455939204       -0.0844917907       -2.6000147094
 H         -3.0816120814        3.0746977074        1.8954575121
 H         -4.5104580519        3.7973370970        1.1455021527
 H         -5.2502915209        1.6587784771        0.2940339317
 H         -4.8181298206        1.4383167364        2.0000529415
 O         -2.7831353400        0.1016627676        1.7124662805
 C         -1.7852833195       -0.8506704318        1.5695350099
 O         -1.2334862592       -1.1830002521        2.6360903597
 H          0.3694357097        0.1745308902       -0.2977457298
 C          1.0068635200       -0.5368727092       -0.8093892103
 C          0.7290950107       -1.8929307794       -0.7091378610
 C          1.5706799411       -2.7835883086       -1.3672646915
 C          2.6533375508       -2.3275693577       -2.0990185514
 C          2.9241544401       -0.9739138775       -2.1942559708
 C          2.0850148197       -0.0773968283       -1.5507395302
 N          2.3857758290        1.3089322219       -1.6079842395
 S          3.5657247889        1.7556054119       -0.5003613894
 O          3.5933516382        3.2002853219       -0.5018970586
 O          4.7921032492        1.0876426327       -0.8498686799
 C          2.9431008594        1.1433025308        1.0539848604
 C          3.2156340501       -0.1604961193        1.4167017996
 C          2.6120469405       -0.6785193002        2.5512435194
 C          1.7461774802        0.1071427790        3.2957859600
 C          1.4875667295        1.4165387391        2.9205768107
 C          2.0835558491        1.9395245300        1.7845398909
 H          1.9024485686        2.9509155301        1.4551974214
 H          0.8102001893        2.0219783884        3.5016961211
 H          1.2552025705       -0.3071041217        4.1617067598
 H          2.8058014411       -1.6978499502        2.8439890189
 H          3.8890387303       -0.7424849286        0.8083230792
 H          1.5738817887        1.8911090714       -1.4539847191
 H          3.7736278498       -0.5991405968       -2.7411097107
 H          3.2965904710       -3.0351473771       -2.5992935119
 H          1.3783397016       -3.8421688987       -1.3005677121
 C         -0.4085101289       -2.3693222004        0.1627009289
 H         -0.0073548687       -2.5089290307        1.1782884088
 C         -0.9937924483       -3.6862346004       -0.3126266017
 C         -0.4790827776       -4.9890232505        0.2196423076
 C         -1.8269770078       -4.4883238414        0.6402407580
 H         -2.7078145076       -4.9862533716        0.2637026278
 H         -1.9396814879       -4.1016149819        1.6429537982
 H         -0.4355084973       -5.8369243601       -0.4474409429
 H          0.3176424924       -4.9559776005        0.9474569875
 H         -1.3166707485       -3.6464984601       -1.3465171416
 O         -1.9523770198       -1.2873454500       -2.0250321603
