  62
        -98.94431444
 C         -2.2401572041       -1.1049111182        0.2758963802
 C         -2.3668034196        0.0136103463       -0.5831322407
 C         -3.2307030165        1.0985365635       -0.0979588260
 C         -3.8089292150        1.0129442678        1.1129550198
 C         -4.6833941098        2.0539121940        1.7573358737
 C         -6.1539474739        1.9940023610        1.3216389027
 C         -6.4318607889        2.4795477446       -0.1015079385
 H         -7.5138504322        2.5899917153       -0.1965090700
 H         -5.9904682373        3.4670700029       -0.2397420890
 C         -5.9341717651        1.5321860752       -1.2019908609
 H         -5.7395249112        0.5464270708       -0.7734827591
 H         -6.7154860260        1.4058565779       -1.9547002261
 C         -4.6779957713        2.0108157475       -1.9298505313
 H         -4.8973361322        2.9322960371       -2.4738005882
 H         -4.3926186627        1.2486890957       -2.6593989371
 C         -3.4744246041        2.2617761013       -1.0119682975
 H         -2.5851918666        2.3880710778       -1.6350043589
 H         -3.6246850019        3.1736677273       -0.4341871598
 H         -6.5089412137        0.9668987878        1.4322684199
 H         -6.7231246143        2.6189949511        2.0135262184
 H         -4.6353800782        1.8747410220        2.8336455747
 H         -4.2811843680        3.0468272171        1.5532520093
 O         -3.6380335823       -0.0634593919        1.9245684014
 C         -2.8706687484       -1.1427645121        1.5245671918
 O         -2.8257069335       -2.0699644423        2.3573783376
 H          0.2499858224       -0.6934139365       -1.4779263377
 C          0.7568098373       -1.1363513427       -0.6336800785
 C          0.0636575992       -2.0056000952        0.1966449288
 C          0.7199967339       -2.5323948530        1.3032158159
 C          2.0361469314       -2.1966469140        1.5675036684
 C          2.7214399719       -1.3250830181        0.7397183380
 C          2.0699660314       -0.7843499467       -0.3606296517
 N          2.7509873998        0.1243628741       -1.1955276378
 S          3.3734397945        1.4961366476       -0.4471265956
 O          2.6224676047        1.8408206726        0.7390708150
 O          3.4407942174        2.5039237086       -1.4831619544
 C          5.0302109557        1.0154627296       -0.0040737026
 C          5.4426520290        1.0930201074        1.3116346633
 C          6.7391883365        0.7195894738        1.6303869888
 C          7.5952957068        0.2782466584        0.6330923767
 C          7.1661895015        0.2085055694       -0.6841171517
 C          5.8719252242        0.5812906950       -1.0095749597
 H          5.4993199731        0.5464682205       -2.0196207933
 H          7.8349763128       -0.1350083747       -1.4567536982
 H          8.6031395507       -0.0124870754        0.8841477664
 H          7.0743420951        0.7736851994        2.6537233406
 H          4.7393090818        1.4366836044        2.0534922567
 H          2.2031498425        0.3964545615       -2.0005747435
 H          3.7438007229       -1.0523110896        0.9452245044
 H          2.5325316460       -2.6142384289        2.4302106310
 H          0.1812603107       -3.1917958542        1.9685172393
 C         -1.3903105878       -2.3231891282       -0.0595078842
 H         -1.6936672329       -3.1000257795        0.6546883994
 C         -1.6250563177       -2.8451263563       -1.4628952628
 C         -1.2249579209       -4.2516523762       -1.7881779172
 C         -2.6755418801       -3.8889377285       -1.6877365524
 H         -3.2619658325       -3.8421638640       -2.5931404482
 H         -3.2300294175       -4.2337258900       -0.8268522616
 H         -0.8127043111       -4.4570685403       -2.7640308411
 H         -0.7955335559       -4.8442668151       -0.9946353494
 H         -1.5031073923       -2.0946412568       -2.2322876783
 O         -1.8001897105        0.1286921175       -1.7036505651
