  62
        -98.94042393
 C          1.8035222104        0.9398815790       -0.7809959147
 C          1.9999795885        0.3363064226        0.4859437880
 C          3.4018104088        0.1545401600        0.8914298303
 C          4.3955756538        0.6035930437        0.1051039790
 C          5.8691138427        0.5073598119        0.3936050850
 C          6.4946792862       -0.8376411041       -0.0007355494
 C          6.1255955039       -2.0164268907        0.9008610118
 H          6.7975696407       -2.8378038976        0.6440839583
 H          6.3191551282       -1.7509739334        1.9406564537
 C          4.6761752214       -2.4996346447        0.7515831420
 H          4.2580697718       -2.1140026697       -0.1811101255
 H          4.6616141885       -3.5895285175        0.6813477586
 C          3.7549667894       -2.1074659967        1.9069045915
 H          4.0904692668       -2.5956875987        2.8244915785
 H          2.7488833622       -2.4699470980        1.6813371056
 C          3.6688571293       -0.5966302077        2.1607855987
 H          2.8327941760       -0.4084142764        2.8387782293
 H          4.5864403277       -0.2406224624        2.6286623204
 H          6.2133213132       -1.0649012662       -1.0316932412
 H          7.5796018457       -0.7125173784        0.0269130484
 H          6.3518469543        1.2955527776       -0.1883432915
 H          6.0490993242        0.6975771647        1.4520692498
 O          4.1622128995        1.2392167522       -1.0746687602
 C          2.8717316755        1.4102279570       -1.5489610015
 O          2.8060034212        2.0006656850       -2.6461366899
 H         -1.9854153463        0.2085667571       -0.3445648415
 C         -1.6792653889        1.1393970357        0.1014354864
 C         -0.4910817128        1.7411309677       -0.2782120476
 C         -0.1189715264        2.9315665835        0.3425830968
 C         -0.9087661701        3.4932217999        1.3255646447
 C         -2.1015169016        2.8944390524        1.6934085967
 C         -2.4859463576        1.7123937199        1.0750640333
 N         -3.6823929159        1.0700916759        1.4270181350
 S         -4.6381119556        0.3995725289        0.2304000828
 O         -4.5521764914        1.1492006530       -1.0019154712
 O         -5.9556282624        0.3067914524        0.8238931842
 C         -4.0030596050       -1.2462205249       -0.0076516114
 C         -3.6607047897       -1.9975818731        1.0987967858
 C         -3.2079146604       -3.2937226015        0.9122772727
 C         -3.1134681234       -3.8171287652       -0.3682842118
 C         -3.4649679325       -3.0507962900       -1.4690640791
 C         -3.9149105910       -1.7520621737       -1.2894306702
 H         -4.1882291635       -1.1174717656       -2.1175865357
 H         -3.3890346730       -3.4582316940       -2.4649172673
 H         -2.7604968433       -4.8264755316       -0.5103217877
 H         -2.9291732343       -3.8913035369        1.7651572650
 H         -3.7449808575       -1.5593421700        2.0790632968
 H         -4.2337172748        1.5447366584        2.1268200058
 H         -2.7245146579        3.3351771513        2.4570754080
 H         -0.6003266784        4.4104915399        1.8047540335
 H          0.8093052496        3.4042046579        0.0493510195
 C          0.4118111453        1.1699800260       -1.3436112407
 H          0.5412379682        1.9455013422       -2.1175000027
 C         -0.1807895408       -0.0454706403       -2.0417036478
 C          0.7006949667       -1.0557364955       -2.7118931434
 C         -0.0600871638       -1.4276839721       -1.4766058738
 H         -0.9038161799       -2.0952274351       -1.5728441482
 H          0.4805543477       -1.5402267633       -0.5507809342
 H          0.3817174308       -1.4644945506       -3.6587917233
 H          1.7693134461       -0.9146431437       -2.6362918116
 H         -1.1091607556        0.1952752142       -2.5521104989
 O          1.0703157150       -0.0342922012        1.2464961526
