  62
        -98.94952468
 C          1.6469813907        0.7857399829       -0.7056712902
 C          1.5244558845        1.5746859415        0.4631721745
 C          0.5530915061        2.6766285692        0.3934016798
 C         -0.1716223458        2.8481898373       -0.7265008025
 C         -1.1910346954        3.9307851957       -0.9360990539
 C         -2.6034101826        3.4875956499       -0.5330369346
 C         -2.6872507482        2.8505761623        0.8542355186
 H         -3.7405413764        2.6338682873        1.0498834302
 H         -2.1646604969        1.8911322507        0.8576464445
 C         -2.1247381484        3.7155007606        1.9901487568
 H         -2.8141161009        3.6682318153        2.8358536722
 H         -2.0664179098        4.7585652478        1.6751311253
 C         -0.7582425890        3.2568074124        2.5039160652
 H         -0.5734471594        3.7429799405        3.4660330928
 H         -0.7832453946        2.1772783328        2.6779694469
 C          0.4364210686        3.5717484999        1.5941788807
 H          0.4031247632        4.6216486923        1.2929236233
 H          1.3488118002        3.4094685993        2.1758720940
 H         -3.2581805773        4.3607590812       -0.5699788759
 H         -2.9666633392        2.7629415731       -1.2657784680
 H         -1.1935018799        4.1930193220       -1.9959095426
 H         -0.8988224922        4.8056144614       -0.3579833171
 O         -0.0638904573        2.0359258481       -1.8100004023
 C          0.8396304824        0.9841486985       -1.8242330446
 O          0.8297243932        0.3121009769       -2.8753447470
 O          2.2086683940        1.3873483822        1.5034173591
 C          2.6290540913       -0.3729004784       -0.7432432696
 C          2.2617922039       -1.3676020811        0.3309391361
 C          3.1728470646       -1.9321102560        1.2133282123
 C          2.7408637346       -2.8087147822        2.1943247461
 C          1.4011485828       -3.1242864780        2.3270477681
 C          0.4836934872       -2.5743710893        1.4385500765
 C          0.9248328227       -1.7293729721        0.4352140839
 H          0.2117103708       -1.3088816090       -0.2588801963
 N         -0.8859336347       -2.8662829916        1.5245503900
 S         -1.9952321498       -1.6630792697        1.1653436813
 O         -1.5052326602       -0.3523724367        1.5186599570
 O         -3.2088356921       -2.0866653515        1.8340189780
 C         -2.2382983812       -1.7993000552       -0.5920171239
 C         -2.4459230340       -3.0525203578       -1.1334588840
 C         -2.6523942723       -3.1641191603       -2.4987759664
 C         -2.6503349094       -2.0283809177       -3.2948318439
 C         -2.4478661695       -0.7767592357       -2.7353505777
 C         -2.2423408615       -0.6600299782       -1.3704029856
 H         -2.0644338495        0.2948722032       -0.9007118634
 H         -2.4300551209        0.1072409095       -3.3525422525
 H         -2.8035765123       -2.1163475133       -4.3588389764
 H         -2.8098584828       -4.1352507254       -2.9398004170
 H         -2.4379280471       -3.9112040260       -0.4831182744
 H         -1.1599573525       -3.4071912611        2.3318566307
 H          1.0640986059       -3.7845674630        3.1116151218
 H          3.4568612738       -3.2374284981        2.8791391763
 H          4.2174661009       -1.6769464271        1.1432722289
 H          2.4887768702       -0.8580917050       -1.7205561893
 C          4.0534185922        0.1306822768       -0.6459726746
 C          5.1725625065       -0.6483533548       -1.2674035312
 C          4.7256574440        0.6424030258       -1.8832543963
 H          5.3685107444        1.5058856515       -1.8012036251
 H          4.1623526639        0.6037892065       -2.8043983569
 H          6.1274053812       -0.6701500025       -0.7641737214
 H          4.9202168284       -1.5656768016       -1.7772993277
 H          4.2460009829        0.6564498766        0.2820543851
