  62
        -98.94402031
 C          2.2189579309        1.2692017691       -0.1638180398
 C          2.6127236007        0.1681247891       -0.9616333200
 C          3.9848810805       -0.3157628014       -0.7487768399
 C          4.7748048305        0.3072557781        0.1445228505
 C          6.1684862503       -0.1190610825        0.5020458607
 C          6.1614033597       -1.0926767828        1.6890687504
 C          5.1671342693       -2.2442451324        1.5383714199
 H          5.2713976889       -2.8811758827        2.4194787697
 H          4.1505707295       -1.8440234021        1.5506675298
 C          5.3616518693       -3.0891474321        0.2715819497
 H          5.2940357089       -4.1451868722        0.5414381794
 H          6.3596123495       -2.9223919924       -0.1356379001
 C          4.3207509996       -2.8422476315       -0.8221625605
 H          3.3162056295       -2.9184972913       -0.3975005007
 H          4.4196105395       -3.6336207213       -1.5701133807
 C          4.4317090303       -1.5007106613       -1.5576019701
 H          5.4531669804       -1.3612218916       -1.9173269698
 H          3.7641761404       -1.5414480809       -2.4234110302
 H          7.1689808895       -1.4937097132        1.8129517405
 H          5.9040369297       -0.5350013830        2.5924844305
 H          6.6338314303       -0.5872530024       -0.3630389594
 H          6.7409126705        0.7688746272        0.7754851310
 O          4.3691076007        1.3795815680        0.8713682707
 C          3.0810994109        1.8738281285        0.7515988605
 O          2.8275947511        2.8391576984        1.4999678208
 H         -1.1682900990        0.6170255607       -1.7853697907
 C         -1.1097450793        0.2331501904       -0.7793953108
 C         -0.1716122393        0.7415257298        0.1035255595
 C         -0.1219430198        0.2209440594        1.3946361794
 C         -0.9747513502       -0.7941437404        1.7824411990
 C         -1.8970599602       -1.3147663498        0.8908747486
 C         -1.9596536698       -0.7978452094       -0.3956068413
 N         -2.8943973597       -1.3172019889       -1.3039382616
 S         -4.4464741700       -1.6284389885       -0.7713723020
 O         -4.4830224105       -2.8865089987       -0.0679799424
 O         -5.2750743597       -1.5425982979       -1.9534049222
 C         -4.8262673897       -0.2970262787        0.3549438383
 C         -4.7788277992        0.9966370914       -0.1261096614
 C         -5.0437291690        2.0441453513        0.7405622989
 C         -5.3502005194        1.7819553810        2.0673160287
 C         -5.3985512799        0.4777686509        2.5337856884
 C         -5.1323951201       -0.5739938189        1.6714692881
 H         -5.1565688105       -1.6024116390        1.9934152978
 H         -5.6392214202        0.2767573107        3.5652913182
 H         -5.5529715493        2.5998945309        2.7405303289
 H         -5.0079435286        3.0596212514        0.3799831191
 H         -4.5440996389        1.1676027916       -1.1642919013
 H         -2.8842029994       -0.8772115186       -2.2116037815
 H         -2.5549285305       -2.1221972997        1.1684500983
 H         -0.9194013706       -1.1897855207        2.7852920389
 H          0.6055702802        0.6217828390        2.0877330497
 C          0.8090142711        1.8258105296       -0.2710922600
 H          0.7411125512        2.6219304694        0.4833461002
 C          0.5744820116        2.4305418400       -1.6387954898
 C         -0.5009342980        3.4575032404       -1.8247948398
 C          0.9407423622        3.8645531600       -1.8690996994
 H          1.3719602625        4.1394722501       -2.8200861392
 H          1.3461363822        4.4144206496       -1.0322229891
 H         -1.0777346481        3.7368107304       -0.9563311098
 H         -1.0607723878        3.4597539809       -2.7479323999
 H          0.7661830216        1.7340669802       -2.4467198900
 O          1.8635049307       -0.3841334604       -1.8091527103
