  62
        -98.94471087
 C         -2.0052221205        1.3486059032       -0.3334816351
 C         -2.6820017605        0.7959439344        0.7807732454
 C         -3.8597624947       -0.0275702178        0.4687931235
 C         -4.2155173025       -0.2131331150       -0.8154312597
 C         -5.3603971723       -1.0684686379       -1.2738167529
 C         -4.9052064373       -2.5093276309       -1.5444471253
 C         -4.0783402591       -3.1190932289       -0.4122032909
 H         -3.8390393364       -4.1453244228       -0.6998265386
 H         -3.1309174892       -2.5807928849       -0.3299759838
 C         -4.7774714042       -3.1210103196        0.9544591378
 H         -5.8509857882       -2.9817945178        0.8215237282
 H         -4.6323600225       -4.0982001713        1.4198620022
 C         -4.2487727274       -2.0760975474        1.9390142696
 H         -4.6517590021       -2.3078398620        2.9285119464
 H         -3.1600412227       -2.1512839003        2.0045492001
 C         -4.6135820447       -0.6193581848        1.6262151289
 H         -5.6908873597       -0.5352944307        1.4693944586
 H         -4.3439068169       -0.0163670002        2.4981942346
 H         -5.7898258738       -3.1235040863       -1.7219881224
 H         -4.2990207148       -2.5167458868       -2.4534150066
 H         -6.1399306398       -1.0594499276       -0.5146517890
 H         -5.7593299891       -0.6438880285       -2.1966138835
 O         -3.5317902858        0.3232854809       -1.8588436442
 C         -2.4062797997        1.1029458622       -1.6460124672
 O         -1.8545793060        1.5070901062       -2.6906327588
 O         -2.3258988715        0.9796903940        1.9731399589
 C         -0.7764402696        2.2155863042       -0.1208577068
 C          0.2995069470        1.4124033496        0.5696030820
 C          0.9788402707        1.8446074075        1.7000971302
 C          1.9460720453        1.0442942083        2.2850167588
 C          2.2655700470       -0.1901514681        1.7518710372
 C          1.6086705235       -0.6213360405        0.6053528504
 C          0.6400319367        0.1805393160        0.0226356297
 H          0.1256742775       -0.1579135112       -0.8689975829
 N          1.9421650127       -1.8633456314        0.0398627629
 S          3.5628964609       -2.2630205525       -0.0792080422
 O          3.6489294347       -3.1585353236       -1.2115767470
 O          4.0243757030       -2.7956280795        1.1785925496
 C          4.4059348425       -0.7294521263       -0.4282587406
 C          5.3731253931       -0.2624700411        0.4382068906
 C          5.9970527265        0.9431653400        0.1598600611
 C          5.6417455852        1.6589396101       -0.9726062375
 C          4.6705608610        1.1745634678       -1.8357839784
 C          4.0451821867       -0.0311662174       -1.5636604493
 H          3.2891452202       -0.4351771902       -2.2182429826
 H          4.3948018196        1.7318954036       -2.7167379992
 H          6.1237826030        2.5997589427       -1.1863793747
 H          6.7538354315        1.3211770576        0.8280545289
 H          5.6159183074       -0.8496599978        1.3088052190
 H          1.4465878710       -2.0745791870       -0.8132353505
 H          3.0019155056       -0.8318797262        2.2077353286
 H          2.4556759007        1.3859946853        3.1727396284
 H          0.7430806943        2.8025179972        2.1326377314
 H         -0.4122216504        2.4747500827       -1.1256961871
 C         -1.1495663408        3.4906381384        0.6051004311
 C         -0.3405610280        4.7355055807        0.4032751739
 C         -1.7148059934        4.6312092753       -0.1848926019
 H         -2.5111577919        5.2156939107        0.2508702442
 H         -1.8083376030        4.4966710477       -1.2529907038
 H         -0.1940168643        5.3973382999        1.2433521922
 H          0.5024713143        4.6804961461       -0.2685283705
 H         -1.5723286228        3.3044686823        1.5853665749
