  62
        -98.94147873
 C         -1.1049928103       -1.1159356397        0.4485655299
 C         -1.8844727804       -0.7288352094       -0.6648685799
 C         -2.8135376701        0.4020543008       -0.4658925696
 C         -2.8475100998        1.0125311006        0.7330376705
 C         -3.7244569894        2.1545722107        1.1727704708
 C         -5.1719456795        1.7186667210        1.4544168509
 C         -5.7674238499        0.7600963513        0.4264962409
 H         -5.1350837501       -0.1267210588        0.3557058107
 H         -6.7420479399        0.4359187515        0.8005394510
 C         -5.9742946400        1.3477787715       -0.9672058390
 H         -6.4736851002        0.5856890117       -1.5707849090
 H         -6.6437584498        2.2081074717       -0.8976012488
 C         -4.7057087500        1.7806212613       -1.7048755691
 H         -4.3331988897        2.7279098912       -1.3237570891
 H         -4.9791847001        1.9542374115       -2.7499486991
 C         -3.5868154102        0.7435403411       -1.7165395894
 H         -3.9809327705       -0.2060151888       -2.0967443195
 H         -2.8308569803        1.0561443510       -2.4481879795
 H         -5.1887543295        1.2170930409        2.4250409309
 H         -5.7932760493        2.6129039312        1.5258886012
 H         -3.2913918692        2.5440255105        2.0971035808
 H         -3.6912293094        2.9514776208        0.4353977109
 O         -2.0639035997        0.6138527503        1.7755500303
 C         -1.1724411599       -0.4355834299        1.6620122400
 O         -0.5052002798       -0.6616005802        2.6930883999
 H          0.7966106899        0.1810743999       -0.3846467102
 C          1.3118891596       -0.6010801101       -0.9193432704
 C          0.9506604994       -1.9244954100       -0.7132530605
 C          1.6079618590       -2.9092989501       -1.4420306007
 C          2.5880035790       -2.5660313802       -2.3568541708
 C          2.9456064792       -1.2446474202       -2.5559492607
 C          2.2951103895       -0.2525930202       -1.8312578905
 N          2.6122393198        1.1007367098       -2.0101607304
 S          2.4559778803        2.1923812996       -0.7584925902
 O          1.0661631004        2.4801779199       -0.5027692899
 O          3.2654530704        3.3181276895       -1.1750463602
 C          3.2117009403        1.4007923493        0.6497148696
 C          4.5741979302        1.1740821290        0.6034411093
 C          5.1843283003        0.5295323187        1.6663383591
 C          4.4248865804        0.1164134287        2.7512665292
 C          3.0603793704        0.3553951590        2.7855628095
 C          2.4466309704        1.0064700493        1.7270452196
 H          1.3851257204        1.1999404295        1.7319638098
 H          2.4550514605        0.0324072091        3.6178173695
 H          4.8976190304       -0.3922530215        3.5765399891
 H          6.2466324602        0.3473413985        1.6455163090
 H          5.1324064702        1.5182775490       -0.2518437907
 H          3.4158029898        1.2873141197       -2.5906430105
 H          3.7086414992       -0.9795146103       -3.2712316208
 H          3.0851615087       -3.3401023102       -2.9212490210
 H          1.3465551888       -3.9448907001       -1.2977465608
 C         -0.1015030706       -2.2450299199        0.3234001596
 H          0.4028846496       -2.3098560802        1.2999822195
 C         -0.8114062009       -3.5576908698        0.0540612696
 C         -0.2934876311       -4.8387434699        0.6338201493
 C         -1.5470157009       -4.2236939897        1.1769124996
 H         -2.4932788810       -4.6982574295        0.9646901597
 H         -1.5063631206       -3.7462481699        2.1455127196
 H         -0.3814922314       -5.7415899699        0.0482966592
 H          0.5953957090       -4.7905555002        1.2446141992
 H         -1.2679301210       -3.5856631395       -0.9285252804
 O         -1.8170204107       -1.2997542393       -1.7857714400
