  62
        -98.93708002
 C         -2.5447174180       -0.0096983787       -0.1743272313
 C         -2.2917279244       -1.1025716184       -1.0376186468
 C         -1.7389870047       -2.3268331962       -0.4336192033
 C         -1.5055863819       -2.3569545581        0.8913572358
 C         -0.9794150839       -3.4536344385        1.7944183947
 C         -0.3903240723       -4.7306951371        1.2035648590
 C          0.9582687700       -4.5420332696        0.5064746074
 H          1.7199390266       -4.3753970109        1.2721724994
 H          1.2084477260       -5.4662387078       -0.0188972307
 C          1.0421385307       -3.3747876320       -0.4746608947
 H          0.8477391939       -2.4322472508        0.0431067826
 H          2.0703076020       -3.3165610838       -0.8448891646
 C          0.1260801229       -3.4699857160       -1.6928613175
 H          0.3422339471       -4.3864649875       -2.2469238898
 H          0.3632069896       -2.6191597651       -2.3392416448
 C         -1.3805123158       -3.4239200045       -1.3945023911
 H         -1.7420621019       -4.3876063580       -1.0443441494
 H         -1.9018452031       -3.1950528288       -2.3290700760
 H         -1.1090563198       -5.1995795814        0.5378033167
 H         -0.2356636817       -5.4198801573        2.0381672913
 H         -0.2311308731       -2.9739685706        2.4336750181
 H         -1.8167372185       -3.7244912865        2.4472887802
 O         -1.7911308971       -1.2891977359        1.6902697738
 C         -2.2295770305       -0.0780481703        1.1832792247
 O         -2.3154654715        0.8209141673        2.0411698881
 O         -2.5127067708       -1.0557541400       -2.2796909224
 C         -2.9278816380        1.3178980380       -0.8106868329
 C         -1.8844069028        2.3263967818       -0.3987486106
 C         -2.1476888616        3.5293565198        0.2396698930
 C         -1.1018427856        4.3338410407        0.6619839475
 C          0.2135150022        3.9472371278        0.4837570976
 C          0.4852919120        2.7486077053       -0.1682061458
 C         -0.5608296715        1.9736629249       -0.6328063939
 H         -0.3420630377        1.0444638980       -1.1400936060
 N          1.8043340488        2.3021980000       -0.3718646344
 S          2.0582079493        0.6284528254       -0.3448914523
 O          1.7830137244        0.1048511922       -1.6598295090
 O          1.3476173413        0.0228923939        0.7582119221
 C          3.8168365080        0.5802664467       -0.0519454864
 C          4.6671394723        0.8633557694       -1.1045089658
 C          6.0345496859        0.8611757931       -0.8803366413
 C          6.5266605009        0.5767951135        0.3851086596
 C          5.6615205418        0.2914672023        1.4305381268
 C          4.2922362304        0.2940897129        1.2133288354
 H          3.5804714297        0.0732034535        1.9928740508
 H          6.0463003984        0.0672200197        2.4123156785
 H          7.5913230749        0.5748992656        0.5572297066
 H          6.7101362597        1.0798253996       -1.6913935721
 H          4.2375261699        1.0679477923       -2.0711663992
 H          2.4749409135        2.7887969390        0.2077549742
 H          1.0232572996        4.5590750961        0.8514573371
 H         -1.3165289290        5.2642129946        1.1658296912
 H         -3.1662330506        3.8209562940        0.4373781189
 H         -2.8137060398        1.1366595250       -1.8935097772
 C         -4.3612490587        1.7740124799       -0.6016773690
 C         -5.4507340752        0.7798240868       -0.3342260694
 C         -5.0416257585        1.7481397792        0.7327595442
 H         -5.7178856247        2.5556695149        0.9732298648
 H         -4.4761128664        1.3826796816        1.5744418326
 H         -6.4046025874        0.9169726599       -0.8211260830
 H         -5.1597493883       -0.2547799907       -0.2210481755
 H         -4.6180385538        2.5995717372       -1.2590518578
