  62
        -98.93574717
 C         -1.7726857304       -1.3281624424        0.1801454095
 C         -2.9729450257       -0.9191679169        0.8103427429
 C         -3.7530495342        0.1399323355        0.1451178690
 C         -3.2701876194        0.7066388955       -0.9760816723
 C         -3.8457442432        1.7713044462       -1.8867092924
 C         -5.0538752811        2.5979587359       -1.4550680248
 C         -4.7852902583        3.5693413784       -0.3055365530
 H         -4.1399146152        4.3714882719       -0.6727638417
 H         -5.7349673624        4.0181827298       -0.0067167810
 C         -4.1122743333        2.9665824778        0.9251994757
 H         -3.1235748446        2.5894325920        0.6545611851
 H         -3.9607265225        3.7703510134        1.6510903428
 C         -4.8954288965        1.8547838721        1.6204231906
 H         -5.8957208700        2.2123405055        1.8722948428
 H         -4.3790881838        1.6224438446        2.5561081401
 C         -5.0284738760        0.5437501060        0.8274274924
 H         -5.8468839671        0.5960162033        0.1133235723
 H         -5.2628295616       -0.2552791636        1.5370592209
 H         -5.8903660366        1.9469470454       -1.2184093764
 H         -5.3517878210        3.1914719789       -2.3236627806
 H         -3.0158907287        2.4461374668       -2.1206054645
 H         -4.0952714321        1.2564041546       -2.8211008500
 O         -2.0784290733        0.3194279299       -1.5162603072
 C         -1.3031623239       -0.6980244553       -0.9717025844
 O         -0.2499145020       -0.9119079998       -1.5954316688
 O         -3.3830096716       -1.4218147418        1.8911626596
 C         -0.9692912650       -2.4327272266        0.8409530737
 C          0.4924249123       -2.0645145873        0.9252164680
 C          1.5249110463       -2.9269847201        0.5801939620
 C          2.8455807594       -2.5305621479        0.7069186773
 C          3.1679555059       -1.2653019410        1.1593211073
 C          2.1422853691       -0.3853540583        1.4829500081
 C          0.8223030395       -0.7954258226        1.3858729032
 H          0.0283565763       -0.1075216443        1.6516087212
 N          2.4534173554        0.9200422409        1.8961617735
 S          3.6971248016        1.7254169516        1.1178130868
 O          4.9495518987        1.3944608829        1.7532488894
 O          3.3255084295        3.1234233404        1.1680806382
 C          3.7196645854        1.1434022269       -0.5697361642
 C          4.9193848106        0.7430124850       -1.1236283348
 C          4.9356027016        0.2886191639       -2.4321681818
 C          3.7557114737        0.2333307507       -3.1580741183
 C          2.5593573536        0.6413072804       -2.5890927873
 C          2.5400001387        1.1073659267       -1.2850346540
 H          1.6151356221        1.4194940127       -0.8263151572
 H          1.6327147010        0.5766767194       -3.1359912237
 H          3.7648847669       -0.1333379932       -4.1723840446
 H          5.8646620041       -0.0283521939       -2.8779933555
 H          5.8093897676        0.7872526611       -0.5168075331
 H          1.6496607211        1.5185434994        2.0149131484
 H          4.1913543996       -0.9431474609        1.2652355316
 H          3.6360288117       -3.2155205612        0.4415122531
 H          1.2999548199       -3.9087313096        0.1986575227
 H         -1.3603920439       -2.4710019234        1.8723758639
 C         -1.2076210278       -3.8112836258        0.2396937064
 C         -2.4250841898       -4.1050985526       -0.5837119722
 C         -1.0752466125       -4.0647919750       -1.2313405068
 H         -0.6352072150       -4.9963660571       -1.5556153046
 H         -0.8308593538       -3.2219489082       -1.8583264435
 H         -2.9091247444       -5.0617644972       -0.4549586057
 H         -3.1112665602       -3.2934265085       -0.7783017319
 H         -0.8827259982       -4.6069135612        0.9028033220
