  62
        -98.94591542
 C         -1.2975977220       -1.4205045303        0.6219391480
 C         -2.3750986556       -1.3146408860       -0.2921726362
 C         -3.3709399465       -0.2725318275        0.0062844820
 C         -3.2172075893        0.5043453740        1.0927501967
 C         -4.1339896914        1.6265270219        1.4849041980
 C         -3.6913856802        2.9652661476        0.8770296195
 C         -3.3798145900        2.8953699451       -0.6177684339
 H         -3.1034657559        3.9021275084       -0.9380485322
 H         -2.5101082760        2.2533488220       -0.7743521800
 C         -4.5418811751        2.3901514902       -1.4839535576
 H         -5.4792434477        2.4713735216       -0.9322220927
 H         -4.6277001129        3.0313245037       -2.3636908236
 C         -4.3766009345        0.9570095115       -1.9921497329
 H         -3.3967528156        0.8445045599       -2.4627559570
 H         -5.1321562424        0.7804170131       -2.7623051806
 C         -4.5339888194       -0.1449715008       -0.9371013209
 H         -5.4634624140        0.0047915121       -0.3838959240
 H         -4.5982131566       -1.1017578062       -1.4632745722
 H         -4.4815400437        3.6979111560        1.0515231701
 H         -2.7959379968        3.3071902749        1.4012181616
 H         -5.1448389329        1.3873818092        1.1595448575
 H         -4.1252205464        1.7110677646        2.5731406960
 O         -2.1729985488        0.3707651296        1.9510258882
 C         -1.1979043108       -0.5893962659        1.7408791575
 O         -0.3056987103       -0.6058050017        2.6137725449
 O         -2.5247860656       -2.0460205538       -1.3046908843
 C         -0.1752351084       -2.4343697311        0.4523486680
 C          0.7862638813       -1.9549676190       -0.6094395855
 C          0.5070042598       -2.0704186143       -1.9673296856
 C          1.4045293810       -1.5980058987       -2.9072547332
 C          2.5860099327       -0.9923740127       -2.5171074793
 C          2.8724632057       -0.8672484864       -1.1630151249
 C          1.9771766283       -1.3558514339       -0.2214962335
 H          2.2164185096       -1.2613905379        0.8271751739
 N          4.0670041295       -0.2632254306       -0.7370147335
 S          4.0440578980        0.8035170541        0.5516519187
 O          5.2691980859        1.5602274031        0.4066031675
 O          3.8904313901        0.0839251559        1.7892373216
 C          2.6433094852        1.8611548485        0.2395383871
 C          2.7725936950        2.8197761615       -0.7478156784
 C          1.6873054294        3.6243961005       -1.0507547767
 C          0.4916515506        3.4545562846       -0.3683506144
 C          0.3805801054        2.4910561679        0.6207445815
 C          1.4636728843        1.6832892046        0.9312087976
 H          1.3923508226        0.9272681213        1.6977545388
 H         -0.5438819860        2.3499578577        1.1586832066
 H         -0.3573530406        4.0766298359       -0.6043400959
 H          1.7730357470        4.3785861487       -1.8162527504
 H          3.7225514372        2.9296871564       -1.2454410200
 H          4.6451978477        0.0881549311       -1.4867739553
 H          3.2837481418       -0.6218170831       -3.2524923920
 H          1.1777931573       -1.6955669676       -3.9580760474
 H         -0.4272422474       -2.5094599776       -2.2782128487
 H          0.3657293139       -2.4393608363        1.4086043648
 C         -0.6791102735       -3.8384496177        0.1841172426
 C          0.2484233814       -4.9930475455        0.4084116366
 C         -0.9047249387       -4.7656218510        1.3383875827
 H         -1.7435438454       -5.4442942295        1.2979451404
 H         -0.6944538192       -4.3916295362        2.3303404464
 H          0.2040072260       -5.8304046979       -0.2708078964
 H          1.2417508789       -4.7720104196        0.7702768236
 H         -1.3743518736       -3.9019301146       -0.6418631013
