  62
        -98.94114330
 C          2.6949995929        0.3440510313        0.1197488759
 C          2.2934295894        1.1092815090       -1.0068108909
 C          1.7064599436        2.4264649654       -0.7387539008
 C          1.5938789284        2.8419109459        0.5351850936
 C          1.0274843270        4.1648143166        0.9644187465
 C         -0.4714901152        4.0735369321        1.2749188989
 C         -1.2933474254        3.3932839978        0.1801042962
 H         -1.0355364833        2.3319692031        0.1430365672
 H         -2.3423518246        3.4506299884        0.4817879959
 C         -1.1299901900        4.0028056118       -1.2193805453
 H         -2.1170922987        4.0792743513       -1.6798883401
 H         -0.7275616414        5.0139580333       -1.1407709837
 C         -0.2597094153        3.1765778846       -2.1695135006
 H         -0.4348695899        3.5311862352       -3.1891285340
 H         -0.5706767377        2.1294303438       -2.1227608528
 C          1.2523315409        3.2411750123       -1.9160452069
 H          1.5668639773        4.2824336913       -1.8123641927
 H          1.7573335118        2.8132030631       -2.7870685385
 H         -0.8491651487        5.0846862855        1.4415592301
 H         -0.6011830741        3.5024363766        2.1974520518
 H          1.5553368991        4.4828086926        1.8657254848
 H          1.2016018754        4.8954520956        0.1764031361
 O          1.9865635118        2.0870439675        1.5904540187
 C          2.5015112553        0.8034574093        1.4224864784
 O          2.7556174592        0.2342070924        2.4999212926
 O          2.4467509780        0.7046310030       -2.1918458884
 C          3.2354180607       -1.0414770436       -0.1981517592
 C          2.1006433387       -1.9196798284       -0.6671091840
 C          2.2658026144       -2.8335253752       -1.7015346405
 C          1.2023632102       -3.6071875664       -2.1316978564
 C         -0.0516652389       -3.4584114377       -1.5665466759
 C         -0.2278420218       -2.5411270050       -0.5379249573
 C          0.8516338759       -1.8036489689       -0.0772240914
 H          0.7002183758       -1.0985271594        0.7275850089
 N         -1.4891342100       -2.3186018453        0.0478204002
 S         -1.8725089235       -0.6794801345        0.2682916209
 O         -1.4307228203        0.0764922783       -0.8799117823
 O         -1.3827083171       -0.2537643470        1.5555201676
 C         -3.6535571201       -0.7575070913        0.3118895175
 C         -4.2575317030       -1.3154302953        1.4232893727
 C         -5.6395107611       -1.4102473131        1.4570178796
 C         -6.3900488979       -0.9472206398        0.3859884869
 C         -5.7697336827       -0.3866924760       -0.7201475067
 C         -4.3871302592       -0.2913410219       -0.7618589727
 H         -3.8593530462        0.1396859842       -1.5974519842
 H         -6.3553458288       -0.0238276346       -1.5492956038
 H         -7.4655551900       -1.0217274138        0.4152847698
 H         -6.1252673070       -1.8430324157        2.3165818907
 H         -3.6328051343       -1.6514070313        2.2345259514
 H         -2.2313378957       -2.7962740982       -0.4475097567
 H         -0.8895803978       -4.0368816836       -1.9252824776
 H          1.3439123492       -4.3144118843       -2.9347837517
 H          3.2271544602       -2.9156833563       -2.1870390422
 H          3.9122103428       -0.9054816186       -1.0590104736
 C          4.0419208883       -1.6811664142        0.9197267545
 C          3.4675756560       -2.7088524203        1.8432948601
 C          4.4882862619       -3.1102175975        0.8235585980
 H          5.4833065964       -3.3574825280        1.1607531587
 H          4.1472976166       -3.6904383163       -0.0197639858
 H          3.7497763582       -2.6601856762        2.8835048249
 H          2.4416691587       -3.0069238226        1.6875895463
 H          4.7437210817       -0.9820713295        1.3608963488
