  62
        -98.93867276
 C         -2.1024114639       -1.0390405312       -0.4058412903
 C         -3.1515963601       -1.2802078735        0.5136788732
 C         -4.4212325911       -0.5760252651        0.2668635984
 C         -4.5142205461        0.2462008552       -0.7925887783
 C         -5.6871236056        1.0993152763       -1.1894726931
 C         -5.5506887084        2.5155349721       -0.6049460592
 C         -6.1150246107        2.6877705584        0.8048215781
 H         -5.8374953304        3.6880942628        1.1451555259
 H         -7.2055068830        2.6473966850        0.7619347242
 C         -5.6279348356        1.6656184616        1.8352471735
 H         -4.5543722789        1.5070652508        1.7166754282
 H         -5.7830728973        2.0919963382        2.8282973251
 C         -6.3689561131        0.3229246143        1.7499271376
 H         -7.2494630670        0.4419122637        1.1187724119
 H         -6.7343752233        0.0486843393        2.7417259920
 C         -5.5278296390       -0.8592671858        1.2459925003
 H         -5.0296010866       -1.3382950258        2.0946184493
 H         -6.1945513370       -1.6112533689        0.8109778946
 H         -4.4899847137        2.7802784586       -0.6122215124
 H         -6.0661785003        3.2177814562       -1.2633738695
 H         -5.6659984822        1.1698953159       -2.2790063301
 H         -6.6215775752        0.6365523633       -0.8864070116
 O         -3.4790521991        0.4542420112       -1.6509842750
 C         -2.2527468931       -0.1674186165       -1.4839852949
 O         -1.4103506629        0.1317583975       -2.3517391648
 H          1.1274750493       -0.4319134093       -1.6790591174
 C          1.1285590366       -0.1200296480       -0.6468961272
 C          0.2369293130       -0.6903763522        0.2481750803
 C          0.2460896753       -0.2514320055        1.5696650500
 C          1.1159492527        0.7414711162        1.9792777185
 C          1.9934020654        1.3211292260        1.0794192837
 C          1.9919147753        0.8898851348       -0.2404357329
 N          2.8736677764        1.4771802848       -1.1608419353
 S          4.4556552972        1.7466163774       -0.6984946629
 O          4.5349621619        2.9450084200        0.0998489953
 O          5.2146770821        1.7574281954       -1.9292586392
 C          4.8970749036        0.3311574442        0.2944707934
 C          5.2400289242        0.4969823250        1.6206187671
 C          5.5501029089       -0.6216150924        2.3777529792
 C          5.5085684535       -1.8802197674        1.7988943378
 C          5.1652376729       -2.0302931659        0.4637740183
 C          4.8550670540       -0.9156711294       -0.2977687493
 H          4.5897250040       -0.9970807849       -1.3395511495
 H          5.1350406730       -3.0103226924        0.0153515610
 H          5.7464713364       -2.7503513767        2.3901637565
 H          5.8195246340       -0.5077739820        3.4154170377
 H          5.2588656052        1.4934397875        2.0310743881
 H          2.8063552042        1.1034178110       -2.0952568632
 H          2.6645559864        2.1111732087        1.3748010596
 H          1.1092750188        1.0725448905        3.0065947081
 H         -0.4505446970       -0.6922453275        2.2689513107
 C         -0.7702829537       -1.7325194150       -0.1701860159
 H         -0.9411345693       -2.4019271652        0.6834617450
 C         -0.3409620303       -2.5628882667       -1.3609682787
 C          0.7372487393       -3.5893432264       -1.1877198875
 C         -0.6825402520       -4.0211487572       -1.3957371809
 H         -0.9560289843       -4.4623960857       -2.3425730282
 H         -1.2230064628       -4.4279838653       -0.5537468347
 H          1.1604378395       -3.7020831602       -0.2012543150
 H          1.4417723155       -3.7391492170       -1.9914547360
 H         -0.3868336061       -2.0251503785       -2.3000839096
 O         -3.0312203163       -2.0502571943        1.5041169789
