  62
        -98.94551411
 C         -2.2138455904       -1.0287198457        0.2123717722
 C         -1.5643751240       -0.2871992898       -0.8057841315
 C         -2.0524876050        1.0841491207       -1.0159581616
 C         -3.0182431309        1.5728206331       -0.2190106573
 C         -3.5976623092        2.9542145698       -0.3120743603
 C         -2.8530019050        3.9454701656        0.5915563538
 C         -1.3327718077        3.9140242918        0.4309972252
 H         -0.9218493154        4.6938483856        1.0770331362
 H         -0.9427519724        2.9624512525        0.8012116718
 C         -0.8384121283        4.1285945458       -1.0062826031
 H         -1.6246582875        4.5877078282       -1.6078012194
 H          0.0032642066        4.8240983599       -0.9828651079
 C         -0.3429029410        2.8529362177       -1.6901636523
 H          0.3371183133        2.3301210546       -1.0128793147
 H          0.2264910091        3.1384381615       -2.5790086785
 C         -1.4342534550        1.8713299087       -2.1369743388
 H         -2.2023037216        2.4056665363       -2.7011398983
 H         -0.9689605560        1.1359952781       -2.7999528137
 H         -3.0912179376        3.7137873359        1.6325001163
 H         -3.2212833197        4.9504509184        0.3748678729
 H         -4.6424396440        2.9076446939        0.0014696367
 H         -3.5540116291        3.2887406273       -1.3469267542
 O         -3.5671237444        0.8579117597        0.7977765834
 C         -3.1658737448       -0.4434133346        1.0489509784
 O         -3.7239594859       -0.9688221475        2.0353498246
 O         -0.6379100662       -0.7415727916       -1.5245696666
 C         -1.8169542185       -2.4623317617        0.5339450544
 C         -0.3121748419       -2.5508557076        0.5658186441
 C          0.4441864470       -3.3844777028       -0.2470013753
 C          1.8273816563       -3.3324501062       -0.2139671121
 C          2.4826176184       -2.4343034912        0.6092299613
 C          1.7329351592       -1.6100918039        1.4368361942
 C          0.3526346167       -1.6921471281        1.4333684508
 H         -0.2247159659       -1.0309526221        2.0696932373
 N          2.4061525807       -0.6145685876        2.2076460241
 S          2.3104427385        0.8771603475        1.4135979480
 O          3.0258688001        1.8144460983        2.2550713252
 O          0.9374152133        1.2351430971        1.1285450805
 C          3.2235282000        0.5638686918       -0.0766084406
 C          2.5679269692        0.1038019243       -1.2013036972
 C          3.3171190046       -0.1857170817       -2.3319376690
 C          4.6927619515       -0.0164425852       -2.3172719813
 C          5.3340677529        0.4441919435       -1.1766797258
 C          4.5942139317        0.7348735072       -0.0424828747
 H          5.0436576447        1.0963216380        0.8678633345
 H          6.4043480451        0.5737003396       -1.1673155791
 H          5.2682501367       -0.2466751896       -3.2001491790
 H          2.8143740432       -0.5492866666       -3.2136292651
 H          1.4968077659       -0.0321763013       -1.1868371130
 H          1.9990231357       -0.4957518750        3.1267422788
 H          3.5575121646       -2.3544424111        0.6147937930
 H          2.4010942319       -3.9798182591       -0.8588769456
 H         -0.0511041605       -4.0501298193       -0.9346905936
 H         -2.1902843577       -2.6371729427        1.5570550105
 C         -2.4717231288       -3.5090576453       -0.3542090539
 C         -3.8173541586       -3.2627223487       -0.9669760464
 C         -2.6001804712       -3.3365372452       -1.8366051323
 H         -2.4749633101       -4.2059247434       -2.4652042825
 H         -2.2189612730       -2.4250079550       -2.2679737884
 H         -4.5244322399       -4.0781359548       -0.9955994864
 H         -4.2724512597       -2.2967174257       -0.8006245377
 H         -2.2881096762       -4.5162277101        0.0071998236
