  62
        -98.94593982
 C         -2.1169732880       -1.4899535173        0.0032479810
 C         -1.8344642903       -0.3693225732       -0.8146659541
 C         -2.8964731755        0.6448396523       -0.8924299957
 C         -4.0530683650        0.4430281023       -0.2354201871
 C         -5.1952048675        1.4156327131       -0.1908576135
 C         -5.0722388984        2.3617951243        1.0118651843
 C         -3.6919812743        3.0033576294        1.1553458330
 H         -3.7341167435        3.6731149282        2.0170019484
 H         -2.9597947567        2.2266508607        1.3881609545
 C         -3.2240158984        3.7864979042       -0.0791103979
 H         -2.7993519273        4.7366451654        0.2512253976
 H         -4.0784721490        4.0185561049       -0.7159574328
 C         -2.1485448275        3.0805220800       -0.9070916845
 H         -1.7359749767        3.8058767140       -1.6133980874
 H         -1.3371875091        2.7556555792       -0.2510608128
 C         -2.6226911502        1.8690479008       -1.7197851112
 H         -3.4992498767        2.1404398735       -2.3115316395
 H         -1.8188885880        1.5895826572       -2.4070637053
 H         -5.2822457426        1.7940870535        1.9214280108
 H         -5.8305275421        3.1412219208        0.9163785503
 H         -5.2158918194        1.9878509308       -1.1162613094
 H         -6.1248604278        0.8506378365       -0.1035454793
 O         -4.2984964010       -0.6633624062        0.5127118227
 C         -3.3329215049       -1.6437745001        0.6690990497
 O         -3.6710546252       -2.5879637087        1.4115432316
 H          1.4798332766       -2.4874576027       -0.8772044007
 C          1.3983560477       -1.9832982427        0.0725844443
 C          0.1863349454       -1.9543493015        0.7411258802
 C          0.1156273194       -1.2870131314        1.9618883227
 C          1.2287594652       -0.6680253645        2.4964877508
 C          2.4369215717       -0.6901551236        1.8205289654
 C          2.5151779683       -1.3459059012        0.6000092218
 N          3.7293908105       -1.3550909031       -0.1044694670
 S          4.6319134879        0.0516289107       -0.1498177349
 O          5.3849792184       -0.0266940121       -1.3825977470
 O          5.4199676282        0.1577666590        1.0540447243
 C          3.4623786203        1.3985996001       -0.2184210235
 C          2.4618575344        1.3658458763       -1.1689009749
 C          1.5572124288        2.4127869719       -1.2256982233
 C          1.6693829707        3.4724899522       -0.3391374219
 C          2.6832027668        3.4941242453        0.6061445639
 C          3.5882702773        2.4471340012        0.6705696826
 H          4.3864163320        2.4191852419        1.3948144444
 H          2.7679274321        4.3195967186        1.2946209926
 H          0.9605675816        4.2844225637       -0.3855427918
 H          0.7607859147        2.3809960879       -1.9511346857
 H          2.3805948039        0.5313148196       -1.8459429596
 H          3.6742804826       -1.7851007733       -1.0159930217
 H          3.3159419296       -0.2128423220        2.2224415135
 H          1.1575585395       -0.1584982578        3.4454755002
 H         -0.8319195061       -1.2578628729        2.4832161728
 C         -1.0713060297       -2.5766670649        0.1862810644
 H         -1.4755435820       -3.2658939739        0.9409238887
 C         -0.8692634847       -3.3368281366       -1.1074903900
 C         -0.3142869399       -4.7285811526       -1.0808639843
 C         -1.7590868658       -4.5033285868       -1.4091200260
 H         -2.0870409791       -4.6521921671       -2.4270534002
 H         -2.5019577712       -4.7654824791       -0.6698566265
 H          0.3483726123       -5.0375969092       -1.8753693849
 H         -0.0730727022       -5.1515339101       -0.1173917303
 H         -0.5992824491       -2.6927108095       -1.9364462978
 O         -0.7581428170       -0.2208916947       -1.4483818840
