  62
        -98.94360039
 C         -1.8053675034       -0.5310430973        0.3836855149
 C         -2.9595913333       -0.5497351601        1.2019011243
 C         -4.2366883214       -0.7193020792        0.5002008000
 C         -4.2484389382       -0.8678204159       -0.8372664060
 C         -5.4692153965       -1.0743813032       -1.6925224724
 C         -6.1868202774        0.2256971482       -2.0806728099
 C         -6.9566439048        0.9067449878       -0.9483809819
 H         -7.5819638237        1.6772181478       -1.4039098113
 H         -7.6230657133        0.1837203025       -0.4770037109
 C         -6.0668936876        1.5607796645        0.1179809022
 H         -5.0550855172        1.6813422223       -0.2763853960
 H         -6.4431513424        2.5613270771        0.3431979500
 C         -5.9953641908        0.7960541094        1.4398559338
 H         -5.3121054031        1.3278530397        2.1072425177
 H         -6.9813842283        0.7832588025        1.9096122649
 C         -5.4980115017       -0.6494644901        1.3070889502
 H         -5.2741123242       -1.0281150603        2.3074394242
 H         -6.2717912498       -1.2741818130        0.8615786493
 H         -5.4512461842        0.9213380605       -2.4911589799
 H         -6.8943686217       -0.0176119080       -2.8766591904
 H         -5.1283857460       -1.5651641582       -2.6065856518
 H         -6.1672177543       -1.7377771035       -1.1811773844
 O         -3.1135017123       -0.8660078238       -1.5858008687
 C         -1.8687359851       -0.6757180832       -1.0023538616
 O         -0.9200100679       -0.6634001579       -1.8084493317
 O         -2.9239667510       -0.4278699430        2.4562838801
 C         -0.4475894654       -0.3389923149        1.0322005327
 C          0.2339492370        0.8917159813        0.4871569476
 C         -0.5033041026        2.0635074831        0.3335163282
 C          0.0845152028        3.2093328926       -0.1641249453
 C          1.4264468406        3.2183574304       -0.5026236712
 C          2.1758374303        2.0607248192       -0.3392187351
 C          1.5783683674        0.9066078984        0.1506821103
 H          2.1781321541        0.0201014487        0.2704475494
 N          3.5338588071        2.0331734903       -0.6853776361
 S          4.6306061689        1.1973362830        0.2591449373
 O          4.2698198308        1.2352780965        1.6570495242
 O          5.9140187188        1.7762922541       -0.0784905926
 C          4.5837905021       -0.4769454974       -0.3440917766
 C          4.7540853947       -1.5122799366        0.5535629683
 C          4.7670665335       -2.8154506137        0.0810502995
 C          4.6103270257       -3.0588937016       -1.2745269308
 C          4.4424614046       -2.0076344837       -2.1630419926
 C          4.4332409172       -0.7023864288       -1.6978665029
 H          4.3007728447        0.1358814277       -2.3611761689
 H          4.3166627315       -2.2009669643       -3.2162464891
 H          4.6171037814       -4.0736297350       -1.6402804760
 H          4.8979851819       -3.6343008433        0.7708151464
 H          4.8609487261       -1.2778125567        1.6008560948
 H          3.9111563039        2.9099723597       -1.0136317938
 H          1.8884682310        4.1131810292       -0.8913939207
 H         -0.5038005386        4.1067420088       -0.2845505609
 H         -1.5502523252        2.0611835343        0.6054403441
 H         -0.6546895491       -0.1662843658        2.0995968221
 C          0.3797695270       -1.6002749956        0.8968859990
 C          1.3955870403       -1.9576321372        1.9389880724
 C          0.1200765134       -2.7372446918        1.8376319204
 H          0.1604416933       -3.7448784119        1.4525372431
 H         -0.6347451870       -2.5890735778        2.5961468994
 H          2.3113453283       -2.4315587818        1.6197213685
 H          1.5180552896       -1.2811486465        2.7716892268
 H          0.5986200787       -1.8439690078       -0.1369355131
