  62
        -98.93657041
 C         -2.5065589369       -1.2712516173        0.2036516777
 C         -2.6522252752       -0.3765297689       -0.8835113577
 C         -3.5208540748        0.7854395332       -0.6440769004
 C         -4.1226501178        0.9347450201        0.5496460816
 C         -5.0799504855        2.0281300164        0.9450428235
 C         -4.4988620003        3.4541683469        1.0062347827
 C         -4.6810178063        4.2676412360       -0.2812131712
 H         -5.5345977907        3.8685317237       -0.8303375478
 H         -4.9337541605        5.2955214231       -0.0132241939
 C         -3.4626749955        4.3343690665       -1.2071547939
 H         -3.7982603022        4.7167963875       -2.1734191612
 H         -2.7451976416        5.0511787706       -0.8011894398
 C         -2.7185698326        3.0171215078       -1.4281767959
 H         -2.1215620615        2.7790797999       -0.5441746327
 H         -2.0105540664        3.1576891140       -2.2471457885
 C         -3.6253996618        1.8096868277       -1.7362193255
 H         -4.6585530332        2.1272375514       -1.8680719128
 H         -3.2935490842        1.3201248468       -2.6538710301
 H         -5.0198518336        3.9726041663        1.8127949083
 H         -3.4455384387        3.4064507176        1.2820840970
 H         -5.9305373831        2.0130372581        0.2599212733
 H         -5.4449079881        1.7498170946        1.9358905151
 O         -3.9526200331        0.0485550261        1.5705354999
 C         -3.1311716059       -1.0583132814        1.4310698447
 O         -3.0378160866       -1.7633504322        2.4577935964
 H         -0.2327851003       -0.4797868255        1.1174960300
 C          0.3548075413       -1.0014629154        0.3705044217
 C         -0.2101205320       -2.0801781242       -0.2986987826
 C          0.5628595605       -2.7514554733       -1.2369214753
 C          1.8547832190       -2.3347626920       -1.5086381361
 C          2.4033257366       -1.2461710556       -0.8566042799
 C          1.6445555133       -0.5755657610        0.0938962719
 N          2.1875584249        0.5404938893        0.7561079169
 S          3.6856854852        0.3667856013        1.4959269545
 O          3.9108730548       -0.9955271624        1.9210227199
 O          3.7134840460        1.3763649411        2.5320429637
 C          4.8463763219        0.8107814578        0.2214579136
 C          5.8613257536       -0.0609225251       -0.1210949472
 C          6.7588702400        0.3119970807       -1.1097016363
 C          6.6262993917        1.5430145866       -1.7335970252
 C          5.6023807649        2.4078056762       -1.3761671188
 C          4.7026249748        2.0418477632       -0.3879815786
 H          3.8949312052        2.6844205194       -0.0791675618
 H          5.5019398342        3.3639315946       -1.8641245316
 H          7.3248233831        1.8306638680       -2.5034161535
 H          7.5554520815       -0.3585937187       -1.3892250292
 H          5.9208225304       -1.0100054303        0.3872925335
 H          1.5378356579        0.9925210415        1.3830793242
 H          3.4052486066       -0.9131936342       -1.0728326411
 H          2.4413544399       -2.8629916707       -2.2446244907
 H          0.1523144995       -3.6000035128       -1.7589427016
 C         -1.6182387063       -2.4926528688        0.0597377465
 H         -1.5883469757       -2.9670343659        1.0524220591
 C         -2.2303806395       -3.4661143716       -0.9267911943
 C         -2.0222080910       -4.9411168767       -0.7656246036
 C         -3.3612434430       -4.3366703456       -0.4709647181
 H         -4.1760952033       -4.5243389168       -1.1538425900
 H         -3.6690640057       -4.2472452157        0.5611090163
 H         -1.9210887404       -5.5480953064       -1.6526794686
 H         -1.4235118622       -5.2741630711        0.0688470066
 H         -2.2840458316       -3.0599162911       -1.9301758615
 O         -2.0914553714       -0.5386563595       -1.9974664138
