  62
        -98.93824914
 C          2.4872832925       -0.7117030069       -0.0126588106
 C          2.8721810748        0.4494901672       -0.7314265012
 C          4.0035371865        1.2113983825       -0.1897592228
 C          4.5889373149        0.7927882605        0.9468654129
 C          5.7869471884        1.4352089787        1.5826022353
 C          7.0901810039        0.8056291869        1.0708534716
 C          7.1674201022        0.6974836394       -0.4520802839
 H          8.1404026642        0.2670210879       -0.6988037846
 H          6.4076425497       -0.0069424421       -0.7985410109
 C          6.9955536645        2.0311685069       -1.1925604708
 H          7.1622854126        2.8609271109       -0.5048035495
 H          7.7565831829        2.0990283001       -1.9728565108
 C          5.6388088313        2.2060678606       -1.8775120621
 H          5.4264110126        1.3319713624       -2.4984215473
 H          5.7028086044        3.0714424021       -2.5426019001
 C          4.4437198991        2.4347813409       -0.9434269959
 H          4.6663757003        3.2521097896       -0.2544835903
 H          3.5902359097        2.7285510524       -1.5614223977
 H          7.1769813672       -0.1994562331        1.4900746500
 H          7.9285288841        1.4003730688        1.4380069315
 H          5.7232787880        1.2900398461        2.6622392541
 H          5.7773944029        2.5019774559        1.3676262311
 O          4.1773408860       -0.3060526269        1.6250843558
 C          3.1222941036       -1.0909488971        1.1710623061
 O          2.8744399808       -2.0628534957        1.9063185381
 O          2.2959330861        0.8241119045       -1.7887181835
 C          1.3361098356       -1.5127618486       -0.5942703820
 C          0.0172822843       -1.0426668063       -0.0355033484
 C         -0.1997991401       -0.9602524476        1.3364902610
 C         -1.4199232404       -0.5319757967        1.8266732687
 C         -2.4423735190       -0.1716931510        0.9658155237
 C         -2.2361859773       -0.2479273364       -0.4046754848
 C         -1.0109782888       -0.6844920301       -0.8943965067
 H         -0.8497220705       -0.7304537960       -1.9631640510
 N         -3.2597308849        0.1352868003       -1.2839976376
 S         -4.8224562880       -0.4093612719       -1.0135962692
 O         -4.8258730002       -1.6906181054       -0.3473608088
 O         -5.4661664368       -0.3553264577       -2.3076053134
 C         -5.5345976773        0.8344318833        0.0422630086
 C         -5.4743205632        2.1516088300       -0.3687565193
 C         -6.0344527614        3.1298199287        0.4370341216
 C         -6.6447425828        2.7763759682        1.6314031599
 C         -6.7001265695        1.4491371796        2.0281899801
 C         -6.1407020586        0.4657153930        1.2271655844
 H         -6.1552176598       -0.5780235102        1.4983862255
 H         -7.1751578909        1.1763922947        2.9568753729
 H         -7.0796238860        3.5401194647        2.2566122333
 H         -5.9931245762        4.1631682108        0.1322341175
 H         -4.9936366602        2.3854565270       -1.3040531134
 H         -3.0116681255        0.0754442731       -2.2606380852
 H         -3.3930997234        0.1639612702        1.3463163269
 H         -1.5765283571       -0.4749899269        2.8932725130
 H          0.5961858401       -1.2398225706        2.0102357132
 H          1.3419115898       -1.2643711037       -1.6679031670
 C          1.5280908852       -3.0187664443       -0.4826480901
 C          0.7052137087       -3.9034659407        0.3996658494
 C          0.5161743484       -3.9486995398       -1.0850927403
 H          0.8642254050       -4.8134504536       -1.6294482764
 H         -0.3874034616       -3.5104393719       -1.4831657171
 H          1.2065897626       -4.7247848530        0.8881971007
 H         -0.0722921439       -3.4541872514        0.9968277222
 H          2.5701616367       -3.3000128971       -0.5969690953
