  62
        -98.94850843
 C          1.2360046219        1.5147278347        0.5000548191
 C          2.1750533367        1.2045130928       -0.5127429031
 C          3.2290760022        0.2518947233       -0.1372084060
 C          3.2470481457       -0.2590761093        1.1070990500
 C          4.2338461563       -1.2748633074        1.6037634794
 C          3.7087198546       -2.7040228696        1.4103843661
 C          3.1771868737       -2.9886613303        0.0051362482
 H          2.8820460047       -4.0404929996       -0.0201374876
 H          2.2643495421       -2.4093383893       -0.1582105917
 C          4.1792636456       -2.7124395447       -1.1246475482
 H          5.1922742013       -2.6837314856       -0.7206745068
 H          4.1360973274       -3.5406119475       -1.8353295401
 C          3.9121470461       -1.4321815129       -1.9185976848
 H          2.8636853469       -1.4086161238       -2.2284093957
 H          4.5221022199       -1.4619681326       -2.8256122073
 C          4.2304956276       -0.1181885884       -1.1939824817
 H          5.2387310675       -0.1611318455       -0.7771501477
 H          4.1961300770        0.6865926407       -1.9342230888
 H          4.5152601046       -3.4019797678        1.6443333914
 H          2.8935183464       -2.8748547520        2.1176536345
 H          5.1757304889       -1.1480310006        1.0735115713
 H          4.3998497011       -1.1010046892        2.6685459905
 O          2.3315886434        0.0669263794        2.0547535089
 C          1.2851398065        0.9267923629        1.7629433114
 O          0.4755404210        1.0896061702        2.7000021207
 H         -0.4180916689       -0.1554080395       -0.2102248928
 C         -0.9491574318        0.4536993218       -0.9244894083
 C         -0.7908600580        1.8315196502       -0.8987704290
 C         -1.4605836235        2.5900830085       -1.8510547887
 C         -2.2521953241        1.9724491071       -2.8043492932
 C         -2.4125989580        0.5982783199       -2.8191344933
 C         -1.7503020754       -0.1681762750       -1.8673190692
 N         -1.8725848648       -1.5654354571       -1.8331642916
 S         -1.8785939761       -2.3526713494       -0.3569204316
 O         -0.5522144647       -2.3858564033        0.2053642323
 O         -2.4728219641       -3.6406380307       -0.6463909082
 C         -2.9914402818       -1.3949167481        0.6568306750
 C         -2.5215418528       -0.5972131393        1.6793951112
 C         -3.4254094811        0.1730863302        2.3955833031
 C         -4.7743382314        0.1327839594        2.0816426843
 C         -5.2330802608       -0.6825505260        1.0575176152
 C         -4.3350381669       -1.4506957296        0.3362946124
 H         -4.6524849812       -2.1061656362       -0.4583170546
 H         -6.2837317733       -0.7179920538        0.8188196442
 H         -5.4705608562        0.7377060346        2.6407580818
 H         -3.0573838345        0.8023501428        3.1905056065
 H         -1.4678123039       -0.5746099669        1.9111257165
 H         -2.5475072267       -1.9543141752       -2.4747188710
 H         -3.0319260399        0.1212453342       -3.5629236306
 H         -2.7587526022        2.5720209620       -3.5452178091
 H         -1.3555607878        3.6627109463       -1.8519013515
 C          0.0672776667        2.4310373919        0.1909611307
 H         -0.5398334204        2.4684738401        1.1085338094
 C          0.5508090325        3.8305337872       -0.1296488323
 C         -0.2756327473        5.0227479252        0.2461730134
 C          0.9846822447        4.7181197029        0.9969014897
 H          1.8437019572        5.3554087669        0.8505562164
 H          0.9026487936        4.3208868953        1.9985392112
 H         -0.2804458197        5.8755742893       -0.4158246922
 H         -1.2155892796        4.8442343327        0.7462532432
 H          1.1245212697        3.8704950380       -1.0481031189
 O          2.1346343488        1.6929543768       -1.6723684281
