  62
        -98.93841891
 C         -2.5356626268       -0.1731805221        0.0847626639
 C         -2.2954281796       -1.2249925836       -0.8252373162
 C         -1.6317971504       -2.4316457102       -0.2981075079
 C         -1.3113582701       -2.4726553565        1.0088545480
 C         -0.5736957540       -3.5495145924        1.7602855534
 C          0.9353588770       -3.5168518262        1.4825574111
 C          1.3117630364       -3.4559051172        0.0049194202
 H          0.9385279738       -2.5204268335       -0.4182247377
 H          2.4031980484       -3.4090977758       -0.0541027437
 C          0.8459597088       -4.6384438394       -0.8426712828
 H          1.3056569163       -4.5232049269       -1.8275559499
 H          1.2260649074       -5.5634581776       -0.4035504664
 C         -0.6665447236       -4.7752977143       -1.0443242796
 H         -1.1413053490       -5.2555463254       -0.1925843852
 H         -0.8211632686       -5.4382712188       -1.9005280723
 C         -1.3824090622       -3.4683116104       -1.3672430680
 H         -2.3699595741       -3.7006986568       -1.7842943692
 H         -0.8448172659       -2.9516015566       -2.1716074534
 H          1.3898959794       -4.3961895713        1.9435309042
 H          1.3468625889       -2.6227758531        1.9582169852
 H         -0.7345905728       -3.3529004216        2.8227365583
 H         -0.9869385021       -4.5278406845        1.5342287674
 O         -1.6085512148       -1.4515147560        1.8624408384
 C         -2.1690222215       -0.2680012007        1.4267655364
 O         -2.3108132685        0.5968482113        2.3136251107
 O         -2.6069009122       -1.1567480788       -2.0484237380
 C         -3.0631768724        1.1493743078       -0.4382223155
 C         -2.0000862541        2.2101057349       -0.2690645213
 C         -2.2769067421        3.5356305324        0.0368303977
 C         -1.2464180510        4.4520594460        0.1742732688
 C          0.0741407116        4.0678066770        0.0368662662
 C          0.3615317091        2.7402562426       -0.2665242495
 C         -0.6725763815        1.8410175521       -0.4500102685
 H         -0.4360923687        0.8219984041       -0.7202827236
 N          1.6962025089        2.2928915135       -0.3366385474
 S          2.0465729291        0.6549618415       -0.3757613998
 O          1.7675642492        0.0809128756       -1.6772877770
 O          1.4218842595        0.0299015318        0.7608138409
 C          3.8109620300        0.7293915073       -0.1295375731
 C          4.2810443814        1.0025024113        1.1410677146
 C          5.6485547432        1.0892594149        1.3464457810
 C          6.5196752196        0.9031519590        0.2829262281
 C          6.0339929210        0.6270856857       -0.9859848049
 C          4.6665687057        0.5398877155       -1.1974582628
 H          4.2425540692        0.3198884730       -2.1640366937
 H          6.7132296266        0.4795318825       -1.8100890110
 H          7.5837234331        0.9709883939        0.4454943015
 H          6.0292417676        1.3005928705        2.3326968906
 H          3.5648647577        1.1304897674        1.9364309264
 H          2.3156500622        2.8593285867       -0.8958814797
 H          0.8761149900        4.7764153827        0.1690013885
 H         -1.4778296449        5.4803114078        0.4074485480
 H         -3.2989111409        3.8512880575        0.1706710437
 H         -3.2236985062        0.9945934579       -1.5168756769
 C         -4.3836544568        1.5158358346        0.2052854205
 C         -5.4109327418        2.2927533573       -0.5615057317
 C         -5.6323956029        0.8394292261       -0.2731080087
 H         -6.3796631726        0.5623788571        0.4549976871
 H         -5.5310121192        0.1339088839       -1.0850507584
 H         -6.0121183176        3.0152558746       -0.0305035371
 H         -5.1711583456        2.5744424999       -1.5758134203
 H         -4.2880667071        1.6976180533        1.2696404247
