  62
        -98.94606257
 C          1.9422030170        1.2888481420        0.2561498340
 C          1.7296276797       -0.1006353806        0.0959370074
 C          2.8866937778       -0.9612446374        0.3804357602
 C          4.0459811624       -0.3998778880        0.7701317461
 C          5.3166944883       -1.1531588839        1.0346877991
 C          6.1744084352       -1.2584090144       -0.2341981733
 C          5.4034900873       -1.7405553763       -1.4631210544
 H          4.6616998389       -0.9867940663       -1.7372938203
 H          6.1154300049       -1.8045381882       -2.2889102992
 C          4.7055046951       -3.0959124476       -1.2831881933
 H          4.8920851940       -3.7060775265       -2.1694492424
 H          5.1352277463       -3.6234581039       -0.4308648787
 C          3.1877000678       -3.0095375196       -1.1131903825
 H          2.7627523070       -2.4037553046       -1.9176823393
 H          2.7770936245       -4.0179978361       -1.2116441486
 C          2.6985287362       -2.4441744824        0.2259880445
 H          3.1753780549       -2.9811296665        1.0484152195
 H          1.6193303136       -2.6132901970        0.2824367930
 H          6.5883597005       -0.2718722100       -0.4554035504
 H          7.0048963061       -1.9378042536       -0.0338972599
 H          5.0737609148       -2.1472972523        1.4047507296
 H          5.8810527958       -0.6177807462        1.8000402729
 O          4.2070230810        0.9394532991        0.9248715421
 C          3.1651317691        1.8160635230        0.6701652304
 O          3.4443074170        3.0180486354        0.8541782533
 O          0.6310275519       -0.5989044122       -0.2616691809
 C          0.8101906293        2.2594663579       -0.0276141102
 C         -0.4027179512        1.8921772400        0.7917691748
 C         -0.2558747850        1.7123005418        2.1656173146
 C         -1.3374744713        1.3728419634        2.9540715117
 C         -2.5891481592        1.1972543387        2.3887978345
 C         -2.7489017752        1.3833191204        1.0218572304
 C         -1.6620111043        1.7417313241        0.2340590243
 H         -1.8180641673        1.8754184890       -0.8227221143
 N         -4.0135506670        1.2415160803        0.4211053195
 S         -4.2271129334        0.2072133002       -0.8779811117
 O         -3.3726896100        0.6000746912       -1.9675632960
 O         -5.6501167507        0.2420846886       -1.1380913567
 C         -3.7825251287       -1.4081650629       -0.2635562972
 C         -2.4518897325       -1.7344942743       -0.0933346435
 C         -2.1374643208       -2.9775350589        0.4350592339
 C         -3.1436306475       -3.8655380830        0.7809035407
 C         -4.4750625140       -3.5202311587        0.6032856456
 C         -4.7989979484       -2.2790268182        0.0812233691
 H         -5.8190842835       -1.9682456281       -0.0775631012
 H         -5.2579757425       -4.2116184356        0.8706338038
 H         -2.8879658560       -4.8306043468        1.1895187357
 H         -1.0989276544       -3.2345970125        0.5710282729
 H         -1.6733247377       -1.0393371641       -0.3653209967
 H         -4.7638367241        1.0993257018        1.0829718674
 H         -3.4346712026        0.9237522830        3.0017402651
 H         -1.2055628403        1.2354726096        4.0167298633
 H          0.7246803018        1.8396052917        2.6048790922
 H          1.1630120653        3.2469564714        0.3046358261
 C          0.5378630637        2.3182032838       -1.5164814969
 C         -0.0217988971        3.5640612731       -2.1320692485
 C          1.4051192331        3.1800581406       -2.3816598642
 H          1.6794476605        2.8181103757       -3.3613396216
 H          2.1825616945        3.7491257056       -1.8923684150
 H         -0.7321391715        3.4631464863       -2.9391231933
 H         -0.2140427478        4.4016491455       -1.4784972505
 H          0.2187805248        1.3651278486       -1.9244621175
