  62
        -98.93655811
 C          1.5607348177        0.5135077452       -0.8739938128
 C          2.9116309604        0.8695745292       -1.1274555966
 C          3.9322579579       -0.0945503024       -0.7065945877
 C          3.5562355783       -1.2463631961       -0.1226310974
 C          4.4726878287       -2.3463210825        0.3404533328
 C          5.0691505326       -2.1178292983        1.7359449538
 C          6.1461663258       -1.0350848799        1.8138052629
 H          6.6286285258       -1.1322401962        2.7884729758
 H          6.9061053206       -1.2242350658        1.0549509879
 C          5.6149634677        0.3977731012        1.6673625232
 H          4.5349799094        0.4049956337        1.8319769189
 H          6.0597301227        1.0317224794        2.4378210247
 C          5.9130019182        1.0499450082        0.3172060431
 H          6.9920743908        1.1715474773        0.1987747607
 H          5.4595850494        2.0444945393        0.3094725250
 C          5.3732776929        0.2744065934       -0.8915337724
 H          5.9748142582       -0.6177853847       -1.0648338208
 H          5.4416554030        0.9193876651       -1.7710023482
 H          5.5111852755       -3.0628711687        2.0599184184
 H          4.2586800092       -1.8754305719        2.4270709067
 H          3.8732366243       -3.2586438145        0.3676503920
 H          5.2777474470       -2.4805433473       -0.3826592981
 O          2.2542645934       -1.5567728925        0.0980885975
 C          1.2220362633       -0.6924282141       -0.2565553782
 O          0.0959688157       -1.1310471655        0.0328883762
 O          3.2493356961        1.9478154933       -1.6873498842
 C          0.5001022829        1.5199778559       -1.3073704218
 C         -0.3640579335        1.9214351301       -0.1404185339
 C          0.0386468317        3.0272169395        0.6086702530
 C         -0.6711990998        3.4359071801        1.7208753639
 C         -1.8161999549        2.7614417582        2.1061210359
 C         -2.2256399747        1.6549956967        1.3736807754
 C         -1.4985380156        1.2364461314        0.2668792309
 H         -1.8198755324        0.3499481101       -0.2469769612
 N         -3.3654948611        0.9301711559        1.7463778128
 S         -4.3573873146        0.2713375083        0.5748738634
 O         -4.4102494742        1.1103489454       -0.6005057534
 O         -5.6208324566        0.0617522291        1.2527226649
 C         -3.6481686464       -1.3124799835        0.1870450194
 C         -3.1522035384       -2.0881735995        1.2148243526
 C         -2.6308745303       -3.3358956221        0.9177427964
 C         -2.6207938246       -3.7873222152       -0.3926747416
 C         -3.1281334734       -2.9984615464       -1.4123462294
 C         -3.6481069978       -1.7470884770       -1.1227348623
 H         -4.0347152543       -1.0941045704       -1.8893596368
 H         -3.1120936555       -3.3472130594       -2.4327347623
 H         -2.2080767474       -4.7574036551       -0.6216894857
 H         -2.2264870533       -3.9493940265        1.7067856836
 H         -3.1680631812       -1.7030997104        2.2208851294
 H         -3.8871775670        1.3083036561        2.5229293606
 H         -2.3823529760        3.0816195727        2.9677408516
 H         -0.3381771267        4.2928503721        2.2868108967
 H          0.9297325399        3.5629032217        0.3116558975
 H          1.0899369921        2.4120068330       -1.5707039790
 C         -0.1693931387        1.0949056744       -2.6107357465
 C         -1.0007563062       -0.1384919741       -2.7934005703
 C         -1.6328746766        1.2156710730       -2.9131472134
 H         -1.9127998685        1.5572834006       -3.8993855188
 H         -2.3086794273        1.5405247126       -2.1368101265
 H         -0.8490945196       -0.7152977554       -3.6951730800
 H         -1.2083329281       -0.7467034259       -1.9281981419
 H          0.4943086564        1.3147384309       -3.4439267553
