  62
        -98.93820622
 C         -2.0857815003        0.9654121422       -0.0095668551
 C         -2.5201597457       -0.3479325582        0.2811625696
 C         -3.8524001455       -0.7264343769       -0.2272710099
 C         -4.5727425093        0.1665904854       -0.9310551261
 C         -5.9260019411        0.0509780391       -1.6015043122
 C         -6.8646337795       -1.1077355020       -1.2754738266
 C         -7.4207730252       -1.0996323945        0.1479589158
 H         -7.9942004860       -2.0174358201        0.2954512841
 H         -8.1102112810       -0.2573696943        0.2469692208
 C         -6.3827988500       -0.9780845710        1.2608027127
 H         -6.9150400432       -0.9837913161        2.2159444676
 H         -5.8726415533       -0.0158219398        1.1832752174
 C         -5.3377403838       -2.0912918828        1.3050388467
 H         -5.8356632295       -3.0621655027        1.3428656955
 H         -4.7688399599       -1.9715872464        2.2310443847
 C         -4.3300973208       -2.1012114718        0.1420762669
 H         -4.7337782933       -2.6144051219       -0.7274939374
 H         -3.4444502012       -2.6556320143        0.4665784116
 H         -6.3815471642       -2.0563884738       -1.4903277605
 H         -7.7124734987       -1.0227400582       -1.9607502272
 H         -6.4401002186        0.9955162617       -1.3969093530
 H         -5.7231432511        0.0385292777       -2.6781819933
 O         -4.0995835176        1.4188110366       -1.2021014755
 C         -2.8640399585        1.8488549504       -0.7557524165
 O         -2.5762051633        3.0176567998       -1.0830806297
 H          1.1115768717       -0.2555914964        1.6276322063
 C          1.2022927110       -0.1978724633        0.5547339254
 C          0.3502432517        0.6185229108       -0.1703992791
 C          0.4910999103        0.6656580335       -1.5553363311
 C          1.4482403528       -0.0970295113       -2.1959258689
 C          2.2869957896       -0.9251591728       -1.4698596718
 C          2.1578440189       -0.9755820058       -0.0889548199
 N          3.0083481638       -1.8092550388        0.6541114383
 S          4.6369473480       -1.8236356279        0.2804800046
 O          4.8689992416       -2.6570976592       -0.8728188466
 O          5.3005957548       -2.2322015604        1.4984721873
 C          5.0345403714       -0.1281136571       -0.1093497251
 C          5.4681206716        0.2059961224       -1.3758290228
 C          5.7376348661        1.5345863131       -1.6636414723
 C          5.5659622559        2.5013922519       -0.6855406222
 C          5.1330595492        2.1493514403        0.5839346343
 C          4.8627538271        0.8229238639        0.8771994185
 H          4.5311241355        0.5158971605        1.8559581668
 H          5.0025018538        2.9032712072        1.3436014266
 H          5.7715952072        3.5356867743       -0.9122040593
 H          6.0763955851        1.8109504860       -2.6491486824
 H          5.5872387866       -0.5766680393       -2.1072184164
 H          2.8499241521       -1.7827607111        1.6501080305
 H          3.0267702179       -1.5418658329       -1.9537495742
 H          1.5416664428       -0.0518777023       -3.2703797308
 H         -0.1704785513        1.3068895478       -2.1221273302
 C         -0.7299307171        1.4554854817        0.4700963774
 H         -0.6315362830        2.4821061039        0.0906296236
 C         -0.6746082122        1.4876742349        1.9825397372
 C          0.3311455030        2.3589475628        2.6717231278
 C         -1.1220382842        2.7243749490        2.6994239238
 H         -1.6659506986        2.6145021509        3.6257304941
 H         -1.4541425071        3.5566064157        2.0959335912
 H          0.9877158632        2.9478208382        2.0496269659
 H          0.7861165294        2.0029424953        3.5837567575
 H         -0.9244452909        0.5349941889        2.4346642662
 O         -1.8335650767       -1.1766908501        0.9342822820
