  62
        -98.94174454
 C         -1.7077631503       -0.4786217803       -0.2671664794
 C         -2.8267493403       -1.2907961901        0.0535769210
 C         -4.1424123403       -0.7597998803       -0.3180034394
 C         -4.2296659303        0.4403976394       -0.9187954801
 C         -5.4944852102        1.1044520991       -1.3914903405
 C         -6.2416218503        1.8778913597       -0.2964888410
 C         -6.9524861804        1.0099270903        0.7426591694
 H         -7.6081473204        1.6689765906        1.3152897190
 H         -7.5860685704        0.2823760300        0.2343390497
 C         -6.0098495605        0.2859183308        1.7141179599
 H         -5.0229886905        0.7533772008        1.6793164297
 H         -6.3818430206        0.3999676013        2.7348234298
 C         -5.8578422205       -1.2125741393        1.4525847307
 H         -6.8162930605       -1.7112526593        1.6127638909
 H         -5.1436079505       -1.6158259990        2.1748386510
 C         -5.3557775603       -1.5615937601        0.0453470009
 H         -5.0726506003       -2.6169918101        0.0346590815
 H         -6.1480568203       -1.4044282605       -0.6864042192
 H         -6.9899162803        2.5013866495       -0.7913346414
 H         -5.5346820403        2.5428852400        0.2051556987
 H         -6.1582685202        0.3579615189       -1.8288947302
 H         -5.2015234001        1.8097610087       -2.1723283009
 O         -3.1372583302        1.2017402693       -1.1875932104
 C         -1.8537731203        0.7805940894       -0.8514340400
 O         -0.9699091902        1.6124685593       -1.1270430504
 O         -2.7286127504       -2.4092304498        0.6238951616
 C         -0.3345173403       -1.0106167501        0.1022894110
 C          0.4796999096        0.0479793303        0.7997016406
 C          0.0907555295        0.4668551510        2.0697962803
 C          0.8029540294        1.4409386313        2.7414357698
 C          1.9316313995        2.0029857610        2.1704524296
 C          2.3255460496        1.5950088303        0.9021519999
 C          1.6011532296        0.6232331500        0.2246317103
 H          1.8980617397        0.3611283495       -0.7762179295
 N          3.4609739596        2.1473826900        0.2967549197
 S          4.4092868497        1.2395754095       -0.7283607697
 O          5.7092351297        1.8749558095       -0.6668751100
 O          3.8195051498        1.1532357588       -2.0403218097
 C          4.4956751897       -0.3838967601        0.0094096011
 C          4.1591571397       -1.4916794605       -0.7409125783
 C          4.2283494497       -2.7464246902       -0.1563696677
 C          4.6295060196       -2.8704313495        1.1645324924
 C          4.9712190295       -1.7484714491        1.9040200919
 C          4.9065090796       -0.4924509894        1.3233212812
 H          5.1735494695        0.3968880309        1.8701743608
 H          5.2857121294       -1.8490037586        2.9301830620
 H          4.6769416495       -3.8474748493        1.6188183330
 H          3.9655681097       -3.6200927305       -0.7316830872
 H          3.8458472198       -1.3486949811       -1.7629345684
 H          3.9983023696        2.7804310003        0.8690421194
 H          2.4921693994        2.7628198813        2.6933196293
 H          0.4839559894        1.7615450918        3.7217309796
 H         -0.7889324005        0.0250932312        2.5178751605
 H         -0.5433307904       -1.8113769897        0.8314571215
 C          0.4145959297       -1.6629149607       -1.0498030885
 C         -0.3155240602       -2.3725787213       -2.1491480582
 C          0.4146045399       -1.0964676614       -2.4366357788
 H          1.3300617099       -1.1376516517       -3.0097127887
 H         -0.1587472001       -0.1996760615       -2.6134065194
 H          0.0940370799       -3.2977125015       -2.5254444377
 H         -1.3954097602       -2.3475150313       -2.1307836683
 H          1.3413955597       -2.1187897505       -0.7139088982
