  62
        -98.94484911
 C          2.0713310853        0.9923242904        0.4891572869
 C          2.1649440490        0.2324755380       -0.7025558588
 C          2.8429954407       -1.0642853193       -0.5777168203
 C          3.2595671702       -1.4905323894        0.6278560394
 C          3.9395555569       -2.8007128630        0.9195949836
 C          5.4537839154       -2.7897977041        0.6676228217
 C          5.8692151206       -2.7743199323       -0.8039762883
 H          6.9388495706       -2.9904837968       -0.8363723802
 H          5.3578553650       -3.5795549064       -1.3322453236
 C          5.6130058516       -1.4413368712       -1.5207741375
 H          6.4953248818       -1.1655278935       -2.1024250976
 H          5.4579709765       -0.6535719241       -0.7800916439
 C          4.4239770855       -1.4567814417       -2.4815240864
 H          4.3104077910       -0.4549863609       -2.9031338424
 H          4.6251545419       -2.1477270304       -3.3030334626
 C          3.0914350325       -1.8494721000       -1.8298578139
 H          2.2827198377       -1.6201127368       -2.5282529599
 H          3.0746342957       -2.9185388803       -1.6180535498
 H          5.8858627823       -1.9259717173        1.1779798378
 H          5.8657860755       -3.6896680430        1.1300725832
 H          3.4751226353       -3.5920405639        0.3301027698
 H          3.7672448296       -3.0109357209        1.9775776874
 O          3.0809224242       -0.7621047696        1.7632704537
 C          2.4953171812        0.4926708106        1.7196872378
 O          2.3996165096        1.0523116139        2.8329472993
 O          1.7131623055        0.6124308439       -1.8129658827
 C          1.4050799802        2.3588709291        0.4774458339
 C         -0.0561109376        2.1714315205        0.1479588701
 C         -0.6904263594        2.7488696211       -0.9427248871
 C         -2.0242469600        2.4786387283       -1.1996010158
 C         -2.7505530021        1.6356949421       -0.3784252542
 C         -2.1260847585        1.0598713812        0.7206673355
 C         -0.7942981788        1.3347118410        0.9774769174
 H         -0.3058781462        0.8776740508        1.8307347772
 N         -2.8618967858        0.1846734017        1.5568683190
 S         -3.1696302042       -1.3216240750        0.8623736203
 O         -3.4750265447       -2.2000640170        1.9714380592
 O         -2.0858300805       -1.7358835658       -0.0016258280
 C         -4.6446577688       -1.0390563030       -0.0909932197
 C         -5.8070571752       -0.7245902085        0.5860899334
 C         -6.9610632317       -0.4865412761       -0.1430921485
 C         -6.9326821071       -0.5677941186       -1.5276758479
 C         -5.7579290114       -0.8875303364       -2.1914425764
 C         -4.5992936334       -1.1258246456       -1.4683529196
 H         -3.6602883538       -1.3698251270       -1.9391690118
 H         -5.7373239068       -0.9497980677       -3.2675733312
 H         -7.8317258403       -0.3808062316       -2.0934178595
 H         -7.8765400933       -0.2378187134        0.3689598920
 H         -5.7828739100       -0.6772146257        1.6619470830
 H         -2.4068906556        0.0330501330        2.4475666072
 H         -3.7885043909        1.4234904093       -0.5761202280
 H         -2.5036051853        2.9292125445       -2.0550606862
 H         -0.1370551457        3.3984795609       -1.6002935311
 H          1.4734201880        2.7372929045        1.5076781953
 C          2.1311078428        3.3134571329       -0.4446887045
 C          2.0065884852        4.7916286647       -0.2338123813
 C          3.2929218734        4.0941581353        0.0890926244
 H          4.1447693911        4.2547987979       -0.5544369457
 H          3.5529012779        3.9515644508        1.1282227861
 H          1.9773326759        5.4358268134       -1.0992645587
 H          1.3932799638        5.1281342212        0.5882966280
 H          2.2036496339        2.9429862414       -1.4600162652
