  62
        -98.94597402
 C         -1.6001891374       -1.3012718768        0.3679818010
 C         -1.5398999196       -0.2638145725       -0.5934665770
 C         -2.4052647556        0.8988060849       -0.3370912917
 C         -3.1491489880        0.9386668568        0.7829656559
 C         -4.1004661510        2.0413557180        1.1445471903
 C         -5.5153312834        1.7439228925        0.6285876738
 C         -5.5618851812        1.3266921446       -0.8414487565
 H         -5.0608460678        0.3625841748       -0.9551814177
 H         -6.6113772732        1.1750145637       -1.1029062897
 C         -4.9361399294        2.3399825826       -1.8101776604
 H         -5.5991390529        2.4569546504       -2.6700563164
 H         -4.8581284002        3.3149715190       -1.3277400020
 C         -3.5662787948        1.9342160739       -2.3575637515
 H         -3.6187988628        0.9189211722       -2.7589215211
 H         -3.3216728890        2.6014747138       -3.1884569583
 C         -2.4024382029        2.0008993744       -1.3602696238
 H         -1.4738403609        1.8862905093       -1.9275503451
 H         -2.3914821508        2.9813441800       -0.8791852548
 H         -6.1307813907        2.6332325674        0.7758580283
 H         -5.9395255463        0.9344067390        1.2270175567
 H         -4.1311251518        2.1260519615        2.2320350223
 H         -3.7408173165        2.9794243035        0.7262268877
 O         -3.1511397505       -0.0587118098        1.7024579022
 C         -2.3924409430       -1.1999180111        1.5163324966
 O         -2.5030229884       -2.0424404960        2.4279055214
 H          1.1304914187       -1.7308706693       -1.5433988768
 C          1.4973450124       -1.7469942714       -0.5298199187
 C          0.6744687699       -2.1865512163        0.4952063238
 C          1.1649174324       -2.1681718754        1.7976911270
 C          2.4467270881       -1.7224915705        2.0640740704
 C          3.2550515316       -1.2551356238        1.0419955974
 C          2.7657490473       -1.2546983014       -0.2571637450
 N          3.5449890616       -0.7009136247       -1.2905288149
 S          4.1896728424        0.8134660319       -0.9760431071
 O          4.2186909553        1.4974360476       -2.2505132728
 O          5.4699273608        0.6569656617       -0.3290200536
 C          3.0613252732        1.6234046769        0.1508252128
 C          3.5706638537        2.1918506759        1.3012953395
 C          2.7061957074        2.8169570864        2.1850905605
 C          1.3485176560        2.8554183853        1.9089321044
 C          0.8522777096        2.2810906334        0.7492514042
 C          1.7127118401        1.6634070487       -0.1441911845
 H          1.3312155186        1.2057805847       -1.0436842104
 H         -0.2053277478        2.2953707386        0.5366222473
 H          0.6703098025        3.3315470909        2.5994561636
 H          3.0911872380        3.2646593482        3.0870644317
 H          4.6310852894        2.1253619156        1.4833284459
 H          3.0731093452       -0.7025689534       -2.1840753283
 H          4.2477884662       -0.8791847665        1.2313365414
 H          2.8159288100       -1.7231429116        3.0781634789
 H          0.5197505709       -2.4914088117        2.6024400013
 C         -0.7632886527       -2.5669533244        0.2412260190
 H         -1.0912850944       -3.2265018105        1.0547975812
 C         -0.9861011443       -3.2762873353       -1.0780517403
 C         -0.5116777601       -4.6888136874       -1.2345270346
 C         -1.9787067097       -4.3960231855       -1.1471881448
 H         -2.5796696631       -4.4975116966       -2.0385954346
 H         -2.4997341228       -4.6602925986       -0.2384225065
 H         -0.1035521811       -4.9947512454       -2.1856846075
 H         -0.0355292737       -5.1509168920       -0.3829548703
 H         -0.9233180655       -2.6241363545       -1.9396442218
 O         -0.8120409458       -0.2873027651       -1.6212493520
