  62
        -98.94613062
 C         -1.9269183003       -1.2772877468        0.2845474258
 C         -1.7098322742        0.1009041001        0.0505768666
 C         -2.8517216114        0.9843298022        0.3271226446
 C         -3.9987321167        0.4538258647        0.7894616123
 C         -5.2533229780        1.2302925135        1.0638499177
 C         -6.1628538935        1.2720231466       -0.1720746343
 C         -5.4409794430        1.6804773357       -1.4561947700
 H         -4.7160544110        0.9066903100       -1.7194997133
 H         -6.1862233601        1.7060571920       -2.2542301694
 C         -4.7274158715        3.0374423269       -1.3788398174
 H         -4.9460459731        3.6001088126       -2.2888963004
 H         -5.1185184280        3.6143685730       -0.5400367284
 C         -3.2044421341        2.9473598381       -1.2662582949
 H         -2.7917517281        3.9449186427       -1.4390939943
 H         -2.8172693057        2.2935141521       -2.0519942495
 C         -2.6622232551        2.4547652046        0.0813945116
 H         -1.5806373888        2.6185043841        0.0815634678
 H         -3.1007077489        3.0412450717        0.8912702644
 H         -6.5906860186        0.2779535853       -0.3213614879
 H         -6.9807364473        1.9675552925        0.0246034241
 H         -5.7879226676        0.7422700496        1.8805345958
 H         -4.9896365962        2.2413862493        1.3678199433
 O         -4.1618135328       -0.8741507084        1.0208689974
 C         -3.1378976103       -1.7721080975        0.7683140814
 O         -3.4197350874       -2.9611717802        1.0195984462
 H          1.7946968153       -1.8877388217       -0.8578211678
 C          1.6644102943       -1.7495277270        0.2018638849
 C          0.4195322742       -1.8973890811        0.7916904062
 C          0.3063335028       -1.7067718284        2.1673404401
 C          1.4070627103       -1.3637223272        2.9272893616
 C          2.6448180200       -1.1938944422        2.3303914191
 C          2.7702813558       -1.3876642384        0.9610475065
 N          4.0188635041       -1.2467464333        0.3255447216
 S          4.1880086415       -0.1683527097       -0.9449910573
 O          3.3004128358       -0.5287127328       -2.0188060125
 O          5.6021070543       -0.1866019017       -1.2517906392
 C          3.7563374269        1.4183803661       -0.2524084051
 C          4.7802467842        2.2589329147        0.1419329027
 C          4.4667832062        3.4695242083        0.7370766971
 C          3.1383037156        3.8138675617        0.9373113593
 C          2.1245937988        2.9563332495        0.5403846031
 C          2.4284980857        1.7443074270       -0.0613378460
 H          1.6457356778        1.0712699523       -0.3741718770
 H          1.0886140812        3.2138844562        0.6943786058
 H          2.8907660403        4.7545449414        1.4037096964
 H          5.2553909446        4.1375699995        1.0440555231
 H          5.7977226288        1.9502811374       -0.0367059610
 H          4.7882454492       -1.1201283542        0.9686436250
 H          3.5057608785       -0.9184537348        2.9206156259
 H          1.3012959795       -1.2196167054        3.9919364945
 H         -0.6633813005       -1.8307905494        2.6309308876
 C         -0.8142782147       -2.2723276799        0.0077637196
 H         -1.1738210802       -3.2431244881        0.3795231022
 C         -0.5736533616       -2.3834272213       -1.4833439542
 C         -0.0305931484       -3.6526635987       -2.0650978336
 C         -1.4612005163       -3.2724300913       -2.2990024191
 H         -1.7546004196       -2.9448236022       -3.2852162258
 H         -2.2300275552       -3.8209629914       -1.7739262193
 H          0.6627388267       -3.5837159205       -2.8900553172
 H          0.1727363461       -4.4668508806       -1.3858581722
 H         -0.2603619545       -1.4465383681       -1.9311516577
 O         -0.6193196242        0.5723708905       -0.3639007546
