  62
        -98.94274259
 C          0.9866746090        1.2642119510       -0.4822726677
 C          1.9821186546        1.5249943421        0.4949080436
 C          2.9313615573        0.4402202565        0.7710467239
 C          2.7939237475       -0.7288626332        0.1199862175
 C          3.7141941055       -1.9047893854        0.2682563690
 C          4.8540480459       -1.8509128164       -0.7584450039
 C          5.5671285780       -0.5001437172       -0.8189626049
 H          4.8711938291        0.2539286633       -1.1937983248
 H          6.3708116553       -0.5882142958       -1.5533779276
 C          6.1491730663       -0.0288751584        0.5210746327
 H          7.1594162350        0.3493246856        0.3504207584
 H          6.2314595211       -0.8726705641        1.2070012877
 C          5.3607937613        1.0961565196        1.1945409485
 H          5.1964561557        1.9068674762        0.4801004247
 H          5.9698863295        1.4976208189        2.0089497148
 C          4.0048280551        0.6974732299        1.7909350818
 H          3.6482629811        1.5365868359        2.3954007101
 H          4.1312670745       -0.1675643155        2.4449400657
 H          4.4402095772       -2.0628459443       -1.7468841607
 H          5.5753758665       -2.6335783250       -0.5164609154
 H          3.1355726879       -2.8146043193        0.1067751245
 H          4.1208414007       -1.9158146586        1.2774421261
 O          1.8202035831       -0.9521501703       -0.7953312322
 C          0.8948560983        0.0313244105       -1.1311981455
 O          0.0827248853       -0.3317215841       -1.9999530468
 O          2.0729461153        2.6247526226        1.1049390037
 C         -0.0057899890        2.3839563376       -0.7407759687
 C         -1.1684441433        2.2823589297        0.2137184226
 C         -1.6177710290        3.3933523508        0.9179335822
 C         -2.6814425001        3.2846282140        1.7961403054
 C         -3.3206461056        2.0718673849        1.9800194898
 C         -2.8751912695        0.9534755406        1.2840782787
 C         -1.8008898543        1.0638661930        0.4140353979
 H         -1.4616485431        0.1931779071       -0.1246865812
 N         -3.4743340325       -0.2995314183        1.4683713139
 S         -3.6070368687       -1.3566743570        0.1766649395
 O         -3.8713432495       -0.6508363523       -1.0548421171
 O         -4.6341785246       -2.2914894231        0.5920271773
 C         -2.0578694719       -2.2281674077        0.1132406594
 C         -1.6034017875       -2.6858861356       -1.1063254913
 C         -0.4420596497       -3.4402947858       -1.1478185489
 C          0.2408236434       -3.7190120414        0.0243602980
 C         -0.2226334699       -3.2423854012        1.2410783102
 C         -1.3871230062       -2.4940949466        1.2906153780
 H         -1.7753815804       -2.1074295273        2.2185981687
 H          0.3197471551       -3.4505084678        2.1497143631
 H          1.1421116970       -4.3111634287       -0.0118527328
 H         -0.0705534489       -3.7942743439       -2.0958821499
 H         -2.1504406710       -2.4280326303       -1.9987836055
 H         -4.2961954341       -0.3076145751        2.0544781824
 H         -4.1535490610        1.9859604165        2.6610551529
 H         -3.0202015838        4.1533453234        2.3399110090
 H         -1.1182880576        4.3415382315        0.7838714103
 H          0.5381207641        3.3105593338       -0.4949458733
 C         -0.4491149854        2.4964061142       -2.1914019693
 C         -1.7648670030        2.0001630615       -2.7024016361
 C         -1.5203732482        3.4727704720       -2.5798743978
 H         -1.3907861848        4.0525653192       -3.4813136482
 H         -2.0289289931        3.9973735990       -1.7849789967
 H         -1.7779227731        1.5545790706       -3.6857554628
 H         -2.4465599510        1.5213094124       -2.0159424977
 H          0.3904044482        2.4003342256       -2.8733951341
