  62
        -98.93760728
 C          1.8649269025        0.2240557756       -0.0695701085
 C          2.9037154163        1.0941746745        0.3386561274
 C          4.2206200473        0.4766667448        0.5526731523
 C          4.3568456601       -0.8503282502        0.3765185913
 C          5.6473800971       -1.6133141670        0.4743573928
 C          6.4831613758       -1.3964304153       -0.8034708707
 C          7.7954112133       -0.6446129258       -0.5790655286
 H          8.5188101215       -1.3224748293       -0.1210513742
 H          8.1830092596       -0.3640214967       -1.5607760256
 C          7.7063294770        0.6076095725        0.2985363987
 H          7.6832056390        0.3178223928        1.3500920984
 H          8.6332340876        1.1656944975        0.1500694133
 C          6.5202897166        1.5398937144        0.0197823629
 H          6.1644521077        1.4142755964       -1.0030486654
 H          6.8702358806        2.5702392652        0.1102147487
 C          5.3378242447        1.3815805788        0.9939269007
 H          5.7095476066        1.0549867447        1.9690346654
 H          4.8667823557        2.3592050926        1.1323602381
 H          6.7153202577       -2.3623666096       -1.2546398495
 H          5.8695392243       -0.8531848645       -1.5253310440
 H          6.2007654595       -1.2907172432        1.3534337500
 H          5.3936207863       -2.6674001611        0.5881016084
 O          3.3291376974       -1.6569913931        0.0040828599
 C          2.0603678112       -1.1468637223       -0.2327725300
 O          1.2206469020       -2.0010260168       -0.5732044220
 H         -1.7733499048       -0.7084080661       -0.9068877435
 C         -1.6010449578       -0.5683277388        0.1463441784
 C         -0.5148871662        0.1630033115        0.5979292594
 C         -0.3226736741        0.2943568231        1.9720336352
 C         -1.1866032696       -0.3039437072        2.8670829513
 C         -2.2685502551       -1.0381547602        2.4117216733
 C         -2.4718867373       -1.1735889716        1.0443821706
 N         -3.5494226794       -1.9318371888        0.5590913358
 S         -4.5057907902       -1.3689993288       -0.6893704072
 O         -5.6693314400       -2.2276409118       -0.6672715834
 O         -3.7623798615       -1.3325207448       -1.9219818114
 C         -4.9624365060        0.2797229897       -0.1856879489
 C         -4.2037624418        1.3557419537       -0.5994330948
 C         -4.5324686847        2.6211761395       -0.1388403586
 C         -5.6062508162        2.7878924303        0.7218093054
 C         -6.3611754784        1.6966615598        1.1249664850
 C         -6.0350318786        0.4288431726        0.6722783592
 H         -6.6007566479       -0.4448526912        0.9527771073
 H         -7.1987949198        1.8301705604        1.7904430973
 H         -5.8571397710        3.7747145858        1.0775931356
 H         -3.9474763898        3.4707805461       -0.4531964675
 H         -3.3792095563        1.1890852417       -1.2723915751
 H         -4.1174981358       -2.3549107269        1.2783901872
 H         -2.9409993308       -1.5144819048        3.1089506036
 H         -1.0203701885       -0.1980836079        3.9284954425
 H          0.5256044774        0.8645098425        2.3255484885
 C          0.4857356673        0.8059489541       -0.3289571569
 H          0.5674331261        1.8700234810       -0.0631583325
 C          0.1301137175        0.6982460569       -1.7959157115
 C         -0.8141772400        1.6847348541       -2.4127826430
 C          0.6461230509        1.7351647225       -2.7463782473
 H          0.9647929662        1.4202582886       -3.7287802013
 H          1.2380631403        2.5377889850       -2.3311620381
 H         -1.5036918284        1.3349041195       -3.1671325589
 H         -1.2071789335        2.4622727151       -1.7749499975
 H          0.1014926721       -0.3262958256       -2.1504305256
 O          2.7353648226        2.3303385065        0.5192612309
