  62
        -98.94660343
 C          2.4955237941       -0.3327748491        0.0281119422
 C          2.3085876378       -1.4744226661        0.8408041421
 C          1.6436163272       -2.6130896504        0.2004773851
 C          1.2609884803       -2.5229985304       -1.0863997250
 C          0.5443893796       -3.5884927753       -1.8705825168
 C         -0.9742222089       -3.5876100002       -1.6441615309
 C         -1.4305142705       -4.1655260269       -0.3033745652
 H         -2.5061326992       -4.3368693629       -0.3797273650
 H         -0.9546767443       -5.1341203888       -0.1435109815
 C         -1.1642200651       -3.2490783135        0.8986777327
 H         -0.9932855513       -2.2310870199        0.5408712752
 H         -2.0524189251       -3.2229730245        1.5349642015
 C          0.0080675965       -3.6776903407        1.7818234489
 H          0.1365331249       -2.9284169996        2.5672311469
 H         -0.2233220667       -4.6324845970        2.2603335298
 C          1.3442974367       -3.8176701665        1.0422377960
 H          1.3412601100       -4.7173646615        0.4272440301
 H          2.1391665037       -3.9046922566        1.7876077569
 H         -1.3357453055       -2.5597314156       -1.7366704683
 H         -1.4257569204       -4.1771550976       -2.4459623925
 H          0.9537694971       -4.5695989005       -1.6268113591
 H          0.7372762062       -3.3814189439       -2.9254953542
 O          1.5035015377       -1.4249560958       -1.8500134352
 C          2.0832383852       -0.2923907244       -1.3044020667
 O          2.1996793548        0.6620024893       -2.1001578960
 O          2.6714525496       -1.5336711044        2.0480776430
 C          3.0677527783        0.9298837058        0.6463343803
 C          2.0780234531        2.0573348289        0.4762924792
 C          2.4450476868        3.3589972356        0.1614469349
 C          1.4778553672        4.3289341351       -0.0410468939
 C          0.1334928189        4.0151215780        0.0323364432
 C         -0.2435229376        2.7184595950        0.3622374587
 C          0.7272870485        1.7684157024        0.6259868148
 H          0.4246089752        0.7673596741        0.8929589601
 N         -1.6047606565        2.3429507261        0.4371275705
 S         -2.1113756384        1.0990285008       -0.5969473943
 O         -1.2845041176       -0.0639344416       -0.4238052543
 O         -2.2305884230        1.6195531920       -1.9447906587
 C         -3.7364856438        0.7887199499        0.0665779182
 C         -4.8328928174        1.4231549087       -0.4848109320
 C         -6.0852636255        1.1969275425        0.0644142712
 C         -6.2185819879        0.3460514704        1.1511050398
 C         -5.1086776540       -0.2854303532        1.6924310537
 C         -3.8540018587       -0.0623564363        1.1480602330
 H         -2.9645051339       -0.5364134635        1.5302472308
 H         -5.2153435775       -0.9493746224        2.5350880960
 H         -7.1937624612        0.1706963846        1.5771412956
 H         -6.9502575987        1.6833563760       -0.3567717396
 H         -4.6839063043        2.0655778204       -1.3376558385
 H         -2.2126501329        3.1360740999        0.2685974975
 H         -0.6195571617        4.7624829723       -0.1700645123
 H          1.7758630219        5.3369039265       -0.2876816349
 H          3.4878912505        3.6121837091        0.0593270036
 H          3.1765026904        0.7114249788        1.7196037554
 C          4.4335493948        1.2408976417        0.0704853034
 C          5.4735473911        1.9253603593        0.9053860051
 C          5.6196626695        0.4727634272        0.5690361073
 H          6.3779726477        0.1780233091       -0.1406400397
 H          5.4430658417       -0.2552080140        1.3472534345
 H          6.1373092722        2.6292159485        0.4262168003
 H          5.2095953600        2.1846229150        1.9194555486
 H          4.3917050571        1.4677312890       -0.9893452496
