  62
        -98.93691367
 C         -1.3284568102       -1.0685293285       -0.6017529320
 C         -2.5941744205       -1.3056781581       -0.0096837824
 C         -3.5828331122       -0.2141752756       -0.0599177646
 C         -3.2465766406        0.9366574324       -0.6689058361
 C         -4.0633496644        2.1929707537       -0.8394248440
 C         -5.5361319619        2.0128331233       -1.2385298669
 C         -6.5180513013        2.3499621368       -0.1150135523
 H         -6.1463723675        3.2269071797        0.4192828776
 H         -7.4778143366        2.6220256582       -0.5598915065
 C         -6.7749278888        1.2225151639        0.8832539328
 H         -7.3703926424        0.4430610997        0.4030041015
 H         -7.3745527246        1.6337321283        1.6987067234
 C         -5.5212125297        0.5755371965        1.4752751003
 H         -4.7712844558        1.3326397432        1.7034268205
 H         -5.8006417804        0.1098627154        2.4228604506
 C         -4.9107111332       -0.5137142243        0.5806484465
 H         -4.7335711520       -1.4177144506        1.1714992524
 H         -5.6230425950       -0.7986584432       -0.1989871186
 H         -5.7015923867        0.9974666730       -1.5950900358
 H         -5.7377431920        2.6856618896       -2.0736337752
 H         -3.9958397604        2.7744529711        0.0838543543
 H         -3.5386437000        2.7687969964       -1.6054205822
 O         -2.0201879303        1.1225375571       -1.2305349223
 C         -1.0309342203        0.1523513527       -1.2055203168
 O          0.0214431408        0.5083145500       -1.7686172596
 H          1.5050743771       -0.2547761190        0.0313137369
 C          1.4122461941       -0.9510348969        0.8475122019
 C          0.5193712684       -2.0099023999        0.7459604418
 C          0.3829678176       -2.8805068304        1.8206075981
 C          1.1182613618       -2.6888363365        2.9766846541
 C          1.9955521318       -1.6260078497        3.0808851312
 C          2.1402964920       -0.7472292822        2.0106769415
 N          3.0436639864        0.3161442673        2.0995652622
 S          2.9089382647        1.7305170522        1.2170799270
 O          3.6941821328        2.6812422392        1.9794161776
 O          1.5320627872        2.0949703129        0.9838811654
 C          3.7849210474        1.3587462532       -0.2872359778
 C          5.1453372708        1.1399459724       -0.1751393881
 C          5.8733888882        0.8339611319       -1.3121409047
 C          5.2315917342        0.7522408415       -2.5393363397
 C          3.8679851063        0.9786650120       -2.6347183785
 C          3.1317164082        1.2875178811       -1.4998311279
 H          2.0660282661        1.4519286859       -1.5478016608
 H          3.3630155560        0.9142171651       -3.5855941151
 H          5.7962032885        0.5120141745       -3.4265811723
 H          6.9347240932        0.6590175849       -1.2400873700
 H          5.6046285520        1.2241453167        0.7956652530
 H          3.4520325439        0.4643381150        3.0097838419
 H          2.5632973672       -1.4685816195        3.9853103694
 H          1.0013171677       -3.3683574755        3.8073001692
 H         -0.3224326711       -3.6954961271        1.7523187868
 C         -0.3142960015       -2.1970100822       -0.5004170003
 H         -0.9129294735       -3.1080548444       -0.3628011051
 C          0.5544299089       -2.3769790628       -1.7276071548
 C          1.2225951515       -3.6996299256       -1.9506026148
 C          0.0868801811       -3.2752244050       -2.8315594467
 H          0.2987314447       -2.9892626858       -3.8506948022
 H         -0.8673060211       -3.7663794136       -2.7066539550
 H          2.2191598797       -3.7077410398       -2.3640060908
 H          1.0380990391       -4.4809626255       -1.2289237534
 H          1.0964772363       -1.4856642496       -2.0125773919
 O         -2.8927917867       -2.4006658523        0.5406406371
