  62
        -98.93713515
 C          2.4471165821        1.4444949477        0.1446805246
 C          2.5889029490        0.4635887609       -0.8657231854
 C          3.5307036523       -0.6319832468       -0.5791741941
 C          4.1815238141       -0.6572661838        0.5972075036
 C          5.0915885353       -1.7544408754        1.0706052530
 C          4.2548585727       -2.9559092087        1.5554412237
 C          4.4178525538       -4.2206513311        0.7119011091
 H          5.3760087561       -4.6863322220        0.9518198823
 H          3.6293602397       -4.9149636733        1.0103077032
 C          4.3604005897       -4.0247346941       -0.8061318254
 H          4.2212979914       -5.0132536309       -1.2489282081
 H          5.3219389043       -3.6550027256       -1.1654050196
 C          3.2543078893       -3.0955352788       -1.3231078254
 H          2.4246467074       -3.0499339176       -0.6160115423
 H          2.8568993866       -3.5223628037       -2.2466013132
 C          3.7231475587       -1.6658785260       -1.6542251919
 H          4.7736082947       -1.6869750045       -1.9568698555
 H          3.1425272970       -1.2983775821       -2.5054162562
 H          4.5242337078       -3.1953067701        2.5852505994
 H          3.2032994304       -2.6595390066        1.5681062255
 H          5.7600060923       -2.0525938855        0.2660621326
 H          5.6870095462       -1.3515273616        1.8900232993
 O          4.0172421382        0.2990113362        1.5465270045
 C          3.1543380975        1.3612971103        1.3488655423
 O          3.1073696617        2.1631376061        2.3025044277
 H         -0.0999879650        1.0533292768       -1.4700063340
 C         -0.5896921059        1.3803161837       -0.5648557669
 C          0.0925490107        2.2071365389        0.3163606297
 C         -0.5388124818        2.5866196011        1.4952905742
 C         -1.8206313056        2.1495959579        1.7799999491
 C         -2.4952845032        1.3218185167        0.9002942006
 C         -1.8676816920        0.9272555299       -0.2737622117
 N         -2.5368952638        0.0663470287       -1.1657284483
 S         -3.0903490563       -1.3887981402       -0.5305459366
 O         -2.2944932360       -1.8119651577        0.5998372375
 O         -3.1517623652       -2.3005375017       -1.6522527889
 C         -4.7493457109       -1.0097765877       -0.0051915495
 C         -5.6238196447       -0.4929807485       -0.9412497014
 C         -6.9202654750       -0.1954550954       -0.5530323936
 C         -7.3189253132       -0.4210157105        0.7562529547
 C         -6.4300854562       -0.9437742969        1.6830695982
 C         -5.1312233858       -1.2428009056        1.3013559859
 H         -4.4031660084       -1.6442241159        1.9883412974
 H         -6.7416851028       -1.1187117840        2.7003245859
 H         -8.3283910585       -0.1881229853        1.0563361093
 H         -7.6143830128        0.2109237370       -1.2708996246
 H         -5.2739716616       -0.3363716169       -1.9479042234
 H         -2.0084963786       -0.1073570053       -2.0099139155
 H         -3.4903110047        0.9707330999        1.1205405345
 H         -2.2981140970        2.4527694665        2.6993232958
 H         -0.0072288771        3.2112380529        2.1986930578
 C          1.5102113578        2.6392875206        0.0263477938
 H          1.8173207996        3.3320483054        0.8209146151
 C          1.6234943155        3.3580779129       -1.3032787772
 C          1.1542588308        4.7773200357       -1.4005678145
 C          2.6195740636        4.4668943146       -1.4507496915
 H          3.1394803601        4.5693240092       -2.3914309369
 H          3.2240763099        4.7131692141       -0.5897360162
 H          0.7650504706        5.2368547173       -0.5046712872
 H          0.6649514749        5.0965000088       -2.3078409523
 H          1.4702295001        2.7154573962       -2.1596646678
 O          1.9732651259        0.4782686303       -1.9666227994
