  62
        -98.94486891
 C          2.2068372269        1.3277584297        0.1425226917
 C          2.1100716770        0.4988500855       -1.0012290847
 C          2.9212268062       -0.7281329608       -0.9749238552
 C          3.6986486128       -0.9906407756        0.0905527698
 C          4.5093172681       -2.2395575478        0.2767653220
 C          3.7002718314       -3.3183693856        1.0114073567
 C          2.3018100816       -3.5434446955        0.4357354593
 H          1.8384595465       -4.3424505107        1.0183994566
 H          1.7053331557       -2.6413168497        0.5907349355
 C          2.2812062562       -3.9191818091       -1.0530239260
 H          1.5880473879       -4.7511038198       -1.1974602510
 H          3.2679305771       -4.2677780862       -1.3600579075
 C          1.8317579593       -2.7948429213       -1.9885626060
 H          0.8866683880       -2.3741222044       -1.6361451926
 H          1.6507498785       -3.2266531546       -2.9767098095
 C          2.8263566297       -1.6410240706       -2.1652577134
 H          3.8091555651       -2.0362333880       -2.4290547353
 H          2.4725516798       -1.0205955958       -2.9938764549
 H          3.5944725328       -3.0186951492        2.0564985854
 H          4.2641644519       -4.2524143150        0.9810876655
 H          5.3916776567       -1.9926696362        0.8694215196
 H          4.8297270590       -2.6087453586       -0.6955253427
 O          3.7898426827       -0.1576629895        1.1575132660
 C          3.0449445699        1.0060317349        1.2159011907
 O          3.2158349871        1.6685419102        2.2583249997
 O          1.3907044307        0.7468429406       -2.0058680412
 C          1.4089287827        2.6148980668        0.2950853289
 C         -0.0321111420        2.2875988723        0.6081095254
 C         -0.4970429012        2.3586971884        1.9172243108
 C         -1.8092399305        2.0397609409        2.2180053367
 C         -2.6822642253        1.6353089766        1.2235099524
 C         -2.2209044560        1.5393981649       -0.0830206435
 C         -0.9069918599        1.8718750675       -0.3849296439
 H         -0.5516713743        1.7759345404       -1.3990527757
 N         -3.0854638484        1.1153295197       -1.1046410785
 S         -4.1691835113       -0.1196021006       -0.8095052093
 O         -4.4833213745       -0.6627667931       -2.1116664781
 O         -5.2863696598        0.3909490793       -0.0536368676
 C         -3.2913746702       -1.3292446494        0.1651973083
 C         -2.2220167912       -1.9833232112       -0.4140152170
 C         -1.5320650183       -2.9272705954        0.3288740707
 C         -1.9137657503       -3.1920843316        1.6353272318
 C         -2.9895126729       -2.5275361625        2.2026074590
 C         -3.6885071655       -1.5884279987        1.4612023648
 H         -4.5370896098       -1.0572798905        1.8605126084
 H         -3.2860480015       -2.7380714128        3.2174993137
 H         -1.3696313444       -3.9237946998        2.2113629458
 H         -0.6987695030       -3.4515518343       -0.1108050789
 H         -1.9505322357       -1.7557857789       -1.4329975703
 H         -2.6327430296        1.0058003747       -2.0000248811
 H         -3.7117552438        1.4007308286        1.4388436864
 H         -2.1581668215        2.1088539884        3.2370286866
 H          0.1849427964        2.6586400005        2.7000861534
 H          1.8334621273        3.1216130900        1.1715964037
 C          1.5483042218        3.5354139315       -0.9011054762
 C          1.1796412612        4.9795213933       -0.7507307371
 C          2.6179780932        4.5837553845       -0.8943453414
 H          3.1262362194        4.8073682093       -1.8204219441
 H          3.2539606279        4.6442574413       -0.0229771981
 H          0.6976954913        5.4779299858       -1.5778399198
 H          0.8393806833        5.3091441603        0.2194157565
 H          1.3358025745        3.0568404684       -1.8477031420
