  62
        -98.94903631
 C         -0.8947227096       -1.3471677712        0.2386866086
 C         -1.4383698597       -0.2622022823        0.9636589701
 C         -2.2708843804        0.6716737383        0.1943114316
 C         -2.4088970509        0.4882446998       -1.1316267386
 C         -3.2369973816        1.3573419805       -2.0333086372
 C         -4.6688393515        0.8209813402       -2.1677377272
 C         -5.3317267108        0.4973894584       -0.8287779473
 H         -4.8040271003       -0.3390474820       -0.3648521985
 H         -6.3476171407        0.1584464883       -1.0425614472
 C         -5.3806499607        1.6747689272        0.1548946741
 H         -6.3769042106        1.7169001464        0.5999862346
 H         -5.2256615313        2.6115488579       -0.3815343349
 C         -4.3812330102        1.5787170863        1.3089750136
 H         -4.4675525196        0.5992065457        1.7856152225
 H         -4.6516039601        2.3311869953        2.0544345145
 C         -2.9086146704        1.8078439672        0.9442463032
 H         -2.3481974501        1.8928589963        1.8797094230
 H         -2.8074332910        2.7440153679        0.3903104942
 H         -4.6409523614       -0.0916850991       -2.7675318383
 H         -5.2656479220        1.5614477506       -2.7036007861
 H         -3.2528474718        2.3713614001       -1.6375306160
 H         -2.7650108321        1.3719280518       -3.0176877274
 O         -1.8416609808       -0.5461717092       -1.8016991700
 C         -1.0713929302       -1.4880438797       -1.1384236515
 O         -0.6191382902       -2.3906326287       -1.8690247127
 H          1.3766964900       -0.1738966305        0.3362383090
 C          1.9252550502       -1.0646615400        0.0668104077
 C          1.3711618808       -2.3097908805        0.3372221165
 C          2.0974881410       -3.4452774699        0.0049584249
 C          3.3263219107       -3.3281786887       -0.6223025055
 C          3.8441824201       -2.0877769782       -0.9454822843
 C          3.1321674299       -0.9443874088       -0.5991754527
 N          3.6221989293        0.3354070317       -0.8962183414
 S          2.5590112887        1.5848540017       -1.2260899995
 O          1.3658234085        1.1352001520       -1.9050924695
 O          3.3661286680        2.5522267728       -1.9424793688
 C          2.1641552291        2.2542874497        0.3747449114
 C          3.1918162395        2.4547986590        1.2753839812
 C          2.8990577198        3.0076429675        2.5113264120
 C          1.5930590998        3.3567100667        2.8204479629
 C          0.5744490395        3.1557476874        1.9025234532
 C          0.8595592691        2.5969423289        0.6668625624
 H          0.0919050289        2.4039362295       -0.0675767375
 H         -0.4414177905        3.4238829267        2.1436489739
 H          1.3645368601        3.7863399655        3.7829949135
 H          3.6879203901        3.1640021070        3.2293150418
 H          4.1935283694        2.1736893597        0.9966759704
 H          4.4372672190        0.3580565927       -1.4913481618
 H          4.7856100899       -2.0004093172       -1.4660224447
 H          3.8787071909       -4.2180309382       -0.8837741768
 H          1.6957166015       -4.4217686903        0.2202034239
 C         -0.0022321589       -2.3410378718        0.9610883871
 H          0.0748350314       -1.9701219929        1.9941966975
 C         -0.6304564984       -3.7181939520        0.9795307658
 C         -0.3395591276       -4.6674590032        2.1024888645
 C         -1.6862047679       -4.0188914736        1.9995564459
 H         -2.5311057178       -4.6226294835        1.7039585756
 H         -1.9334096978       -3.2357521745        2.7012924769
 H          0.3257917126       -4.3295690139        2.8823099846
 H         -0.2617847773       -5.7209247129        1.8799194833
 H         -0.7661953587       -4.1247881809       -0.0165477446
 O         -1.2317339092       -0.0787300536        2.1941132302
