  62
        -98.94067229
 C         -2.6464857946       -1.2434596324       -0.3259606048
 C         -2.2469570757       -0.0549001382       -0.9836792228
 C         -3.2538238186        1.0158831472       -1.0366453417
 C         -4.4653857967        0.8132327618       -0.4881197053
 C         -5.5632274440        1.8345809911       -0.4269449717
 C         -5.4890176480        2.6515841703        0.8704861496
 C         -4.0960795408        3.2041046997        1.1736989592
 H         -4.1707100502        3.7885660545        2.0933793898
 H         -3.4165419341        2.3729251966        1.3779402874
 C         -3.5037392171        4.0785452924        0.0597392794
 H         -3.0625866040        4.9693161172        0.5119095688
 H         -4.2971025456        4.4133528304       -0.6096031300
 C         -2.4012791216        3.4043674256       -0.7594028199
 H         -1.6464663027        2.9863647290       -0.0871660347
 H         -1.9092124346        4.1726384411       -1.3621353059
 C         -2.8630521883        2.2978857116       -1.7164213435
 H         -3.6785986257        2.6684706411       -2.3407452794
 H         -2.0182690146        2.0475729151       -2.3646893238
 H         -6.2014285173        3.4755676418        0.8012447957
 H         -5.7903999269        2.0101066511        1.7017827116
 H         -5.4876692073        2.4941692665       -1.2890709455
 H         -6.5206348376        1.3121477475       -0.4621996375
 O         -4.8155422939       -0.3461927680        0.1248331275
 C         -3.9139571707       -1.3898073947        0.2410132867
 O         -4.3533638055       -2.3822971069        0.8557337291
 O         -1.1146580424        0.1100304906       -1.5096248065
 C         -1.6806291462       -2.4073591770       -0.1690720349
 C         -0.5429230211       -1.9508862033        0.7115907761
 C         -0.7852799863       -1.7676559835        2.0707728982
 C          0.2055590489       -1.2886165074        2.9058653521
 C          1.4580505224       -0.9774870570        2.4042757201
 C          1.7063927464       -1.1483779727        1.0498188268
 C          0.7113412858       -1.6413260609        0.2133667259
 H          0.9137922796       -1.7564796208       -0.8395299292
 N          2.9784338989       -0.8452444069        0.5256119977
 S          3.6997175507        0.5978064140        1.0293102986
 O          4.2698082633        0.3888709389        2.3374370823
 O          2.7666126026        1.6969707790        0.9182050989
 C          5.0026749783        0.7538606722       -0.1759906594
 C          4.7568893713        1.4490687294       -1.3449150059
 C          5.7635157556        1.5417995482       -2.2932082879
 C          6.9899816128        0.9379265527       -2.0592450642
 C          7.2211827199        0.2434686772       -0.8811964648
 C          6.2194732951        0.1476780211        0.0716376714
 H          6.3546122757       -0.3740651842        1.0045162407
 H          8.1767766152       -0.2224336911       -0.7025929492
 H          7.7709713364        1.0121038000       -2.7993963363
 H          5.5870834060        2.0831365009       -3.2088213447
 H          3.7909981443        1.9095390554       -1.4818730467
 H          2.9804054302       -0.8970230397       -0.4847751416
 H          2.2356312535       -0.5883788885        3.0414336828
 H          0.0030456156       -1.1503337721        3.9576505306
 H         -1.7693335436       -1.9944590085        2.4590581073
 H         -2.2343159686       -3.1886456281        0.3688712627
 C         -1.2482303477       -2.9537840422       -1.5129262206
 C         -0.6205370426       -4.3122738945       -1.5888753975
 C         -2.0078559433       -4.0969613183       -2.1127493221
 H         -2.1642447931       -4.1064511989       -3.1810231052
 H         -2.8377747817       -4.4952527416       -1.5474410327
 H          0.1763040961       -4.4748746407       -2.2984360631
 H         -0.5063865263       -4.8589756973       -0.6650975349
 H         -0.8927038920       -2.1875011173       -2.1907831306
