  62
        -98.93788938
 C         -1.7290001444       -0.3022141175       -0.3757949364
 C         -2.9293106626       -0.6351950587       -1.0425989465
 C         -4.1731448961       -0.5172860415       -0.2614426112
 C         -4.1106178773       -0.1102228103        1.0204217650
 C         -5.1941610085        0.0637409496        2.0645032539
 C         -6.6681844257        0.0773155329        1.6681968047
 C         -7.0961980317        1.2866851651        0.8373618406
 H         -8.1330589710        1.1386583599        0.5276376288
 H         -7.0629835500        2.1743439417        1.4740767277
 C         -6.2450030001        1.5741780547       -0.3969143856
 H         -6.6550537295        2.4618549329       -0.8862546262
 H         -5.2255169236        1.8179400301       -0.0913426601
 C         -6.1971173727        0.4536525080       -1.4336633310
 H         -5.6926753360        0.8470928308       -2.3203743497
 H         -7.2125401937        0.1759186515       -1.7230498380
 C         -5.4455265331       -0.8169210680       -1.0005890829
 H         -6.0845789443       -1.4751460782       -0.4168018264
 H         -5.1538890245       -1.3606097360       -1.9040869426
 H         -7.2401729116        0.0990834092        2.5998835981
 H         -6.9306326484       -0.8463062518        1.1608090054
 H         -4.9559569267        0.9957352524        2.5867747553
 H         -5.0385904710       -0.7428140902        2.7895505105
 O         -2.9228081157        0.1871768359        1.6251962256
 C         -1.7126294189        0.1063268185        0.9563348485
 O         -0.7232461242        0.4187658876        1.6440127849
 O         -2.9632565706       -1.0278617408       -2.2405369342
 C         -0.4136694756       -0.3978829323       -1.1262042690
 C          0.5107078812       -1.3652562318       -0.4300651976
 C          0.0290625754       -2.6260346440       -0.0848350701
 C          0.8374688066       -3.5368223468        0.5655081635
 C          2.1471162945       -3.2150671549        0.8774896455
 C          2.6411393635       -1.9643453055        0.5297856595
 C          1.8240605071       -1.0499869050       -0.1224930243
 H          2.2263976785       -0.0876041152       -0.3881455720
 N          3.9524163641       -1.5997327431        0.8584448458
 S          4.8463916876       -0.5869066686       -0.1200708739
 O          4.5995627327       -0.8394806349       -1.5205955033
 O          6.2120813927       -0.7741523905        0.3223542106
 C          4.3187945544        1.0582192743        0.3098484443
 C          4.0237018226        1.3507464055        1.6262661163
 C          3.6412099979        2.6414787102        1.9542992884
 C          3.5672180236        3.6138060992        0.9686734218
 C          3.8738506608        3.3058912820       -0.3476687784
 C          4.2547695196        2.0162063095       -0.6826905077
 H          4.4928343741        1.7290322558       -1.6948497692
 H          3.8149305992        4.0638900166       -1.1127010533
 H          3.2667091584        4.6169288601        1.2276054612
 H          3.3970854288        2.8833412909        2.9762136294
 H          4.0832546410        0.5713021736        2.3673379031
 H          4.5127390963       -2.3204341570        1.2878300719
 H          2.7793302279       -3.9243298100        1.3896577742
 H          0.4478852612       -4.5083110057        0.8306863964
 H         -0.9937507255       -2.8788925042       -0.3294630789
 H         -0.6671073544       -0.8175086249       -2.1114024515
 C          0.1802875273        0.9810814276       -1.3221714570
 C          1.0810257312        1.2582601844       -2.4872020592
 C         -0.3062979490        1.8237120070       -2.4615135532
 H         -0.4282410233        2.8845352560       -2.3031544856
 H         -1.0492289758        1.3912666690       -3.1157707999
 H          1.9117466872        1.9321654961       -2.3435505769
 H          1.2905941509        0.4429521719       -3.1632746133
 H          0.3902867115        1.4814328664       -0.3830314603
