  62
        -98.94020011
 C         -2.4400091957       -0.8908612929       -0.0218583335
 C         -2.6985887879        0.4738741004        0.2519107238
 C         -4.0843692804        0.7957216680        0.6165137511
 C         -5.0007249234       -0.1860610298        0.6998661272
 C         -6.4450624470       -0.0197168473        1.0880161569
 C         -7.3600281149        0.3953007785       -0.0721972695
 C         -7.2016246347        1.8428558191       -0.5386931880
 H         -8.0434822690        2.0605921568       -1.1988900034
 H         -7.2796577454        2.5106544015        0.3197419996
 C         -5.8960198104        2.1246066948       -1.2953602161
 H         -5.4540958120        1.1812031029       -1.6243838484
 H         -6.1140947517        2.7056833203       -2.1942844453
 C         -4.8538719589        2.9049254864       -0.4938927530
 H         -5.2348079012        3.9043700000       -0.2724175410
 H         -3.9586031265        3.0147957226       -1.1113502184
 C         -4.4398999080        2.2369794053        0.8239992572
 H         -3.5497765219        2.7456695966        1.2022705619
 H         -5.2376571679        2.3312881836        1.5603911996
 H         -7.1857667576       -0.2799158395       -0.9130852341
 H         -8.3911025263        0.2536988403        0.2597267765
 H         -6.7798829026       -0.9904231824        1.4598942784
 H         -6.5256654014        0.7088003423        1.8951618369
 O         -4.7030533748       -1.4903779892        0.4538281859
 C         -3.4275228092       -1.8710535358        0.0706285881
 O         -3.2983327456       -3.0938082731       -0.1446415715
 H          1.4537859154       -0.1870848321       -0.7281544774
 C          1.1936616708       -0.3924079400        0.2966121963
 C         -0.0335507945       -0.9490309278        0.6186597914
 C         -0.3191346954       -1.1998220333        1.9586666046
 C          0.5951128507       -0.8893549656        2.9461920417
 C          1.8236404931       -0.3421769595        2.6194430199
 C          2.1207435535       -0.0922983978        1.2857124719
 N          3.3514043199        0.4754478916        0.9180774930
 S          4.0680527774       -0.0411684959       -0.5214720886
 O          3.5306583408        0.7265732225       -1.6162044033
 O          3.9652799830       -1.4784217602       -0.6363811318
 C          5.7627441642        0.4337948626       -0.2296688848
 C          6.6503061374       -0.5019236291        0.2677010084
 C          7.9582892705       -0.1184521219        0.5190062851
 C          8.3540338644        1.1876433839        0.2725697517
 C          7.4523698629        2.1152798182       -0.2278797895
 C          6.1432855998        1.7383037558       -0.4823438271
 H          5.4104303417        2.4213022387       -0.8794068150
 H          7.7645667597        3.1288406747       -0.4213988342
 H          9.3724568237        1.4836976826        0.4686982660
 H          8.6624421785       -0.8382370679        0.9042325152
 H          6.3005922673       -1.5081005912        0.4344979292
 H          4.0153355919        0.5027301886        1.6797901159
 H          2.5409502939       -0.1049587724        3.3904524420
 H          0.3541315061       -1.0846402152        3.9804932450
 H         -1.2737909070       -1.6402299006        2.2145354003
 C         -1.0472830258       -1.3275588225       -0.4342715701
 H         -1.0752817286       -2.4264864102       -0.4929290564
 C         -0.7163069125       -0.7784542808       -1.8067359898
 C          0.2283568882       -1.5126881985       -2.7084550228
 C         -1.2367962252       -1.4833446626       -3.0216574959
 H         -1.5743540123       -0.8899525820       -3.8580714785
 H         -1.8118455849       -2.3842124538       -2.8625156626
 H          0.9041421635       -0.9369650763       -3.3238557668
 H          0.6548331760       -2.4347070812       -2.3417531622
 H         -0.6971144102        0.3058510892       -1.8262775827
 O         -1.8218102563        1.3752909763        0.2001473847
