  62
        -98.93730120
 C         -2.2998682151       -1.1057943905        0.0856304597
 C         -2.2435585238        0.0222806033       -0.7692818164
 C         -2.8574502298        1.2544726784       -0.2469076965
 C         -3.3597083407        1.2714540804        0.9999850793
 C         -4.0367060223        2.4478180586        1.6401317780
 C         -5.5516021774        2.4226156178        1.3927625940
 C         -5.9344798417        2.1978943926       -0.0699960823
 H         -5.6258262834        1.1931861852       -0.3677575662
 H         -7.0244189523        2.2304645827       -0.1293585623
 C         -5.3379929748        3.2211200465       -1.0464655259
 H         -6.1188837626        3.5397091080       -1.7401125216
 H         -5.0087667538        4.1058212270       -0.5004070558
 C         -4.1802704971        2.6892128666       -1.8931369400
 H         -4.4755309614        1.7504153481       -2.3684440931
 H         -3.9820188744        3.4112314809       -2.6896589557
 C         -2.8593665623        2.4574522947       -1.1483601822
 H         -2.0833338820        2.2711140392       -1.8967174844
 H         -2.5867225889        3.3557495462       -0.5903941311
 H         -5.9730440471        3.3673439892        1.7407997154
 H         -5.9855033926        1.6163458300        1.9886251835
 H         -3.8507902913        2.4059190547        2.7147703442
 H         -3.6071902344        3.3661884321        1.2442428963
 O         -3.3444677563        0.1855927992        1.8148745771
 C         -2.8291902892       -1.0213361538        1.3768079403
 O         -2.9000733436       -1.9415395144        2.2162940712
 H          0.2187593757       -0.7487376714       -0.9644554378
 C          0.5915769521       -1.5571118697       -0.3518111026
 C         -0.2831896751       -2.5499456465        0.0686129885
 C          0.2139166354       -3.5809547766        0.8558378034
 C          1.5514103539       -3.6132769161        1.2127763008
 C          2.4183028086       -2.6192910497        0.7948953409
 C          1.9289922842       -1.5839470977        0.0102844237
 N          2.8055634443       -0.5511481577       -0.4097355497
 S          3.2434518634        0.5324443917        0.8149349225
 O          3.6260834805       -0.2208433183        1.9813147901
 O          2.1970959613        1.5180084219        0.9996248921
 C          4.6791539925        1.2975332373        0.0881682006
 C          4.5701421503        2.5442206164       -0.4957641363
 C          5.6912865638        3.1092302183       -1.0836979880
 C          6.8938315140        2.4192288185       -1.0807528030
 C          6.9868076275        1.1669288183       -0.4914960507
 C          5.8701224601        0.5974842571        0.0985557224
 H          5.8966027783       -0.3685691594        0.5744526588
 H          7.9240239372        0.6342332550       -0.4901942664
 H          7.7643884355        2.8611911341       -1.5391059999
 H          5.6216083365        4.0831982958       -1.5408769851
 H          3.6165783525        3.0470107826       -0.4686312896
 H          2.3789524270       -0.0027809994       -1.1473336603
 H          3.4555109090       -2.6219178879        1.0855502319
 H          1.9215832393       -4.4191417010        1.8281550201
 H         -0.4602715812       -4.3490280301        1.2062631172
 C         -1.7442815231       -2.4709752393       -0.2929611937
 H         -2.2814348254       -3.1874695555        0.3484533858
 C         -2.0290589484       -2.8535601712       -1.7392472484
 C         -0.9685034406       -2.9913998808       -2.7860337441
 C         -1.6377492156       -4.2133373109       -2.2379917237
 H         -2.3300300593       -4.7543863685       -2.8648889622
 H         -1.0634791562       -4.8374046271       -1.5697477073
 H         -1.2112932020       -2.6667516387       -3.7862871813
 H          0.0557919792       -2.8032111857       -2.5053652119
 H         -2.9864144650       -2.4697377921       -2.0764788908
 O         -1.7098082735        0.0260031161       -1.9094674382
