  62
        -98.94436447
 C          2.6333067231        1.3155091415        0.1171008239
 C          2.5924252070        0.2899547096       -0.8582396425
 C          3.6607548380       -0.7176127740       -0.7728981230
 C          4.5977289703       -0.6105260681        0.1864542515
 C          5.7125093221       -1.5891953170        0.4132735395
 C          5.3014173833       -2.6783016473        1.4137147258
 C          3.9512414614       -3.3244862197        1.1027804695
 H          3.7803514953       -4.0992004170        1.8533738576
 H          3.1603744827       -2.5804355564        1.2251537277
 C          3.8505466885       -3.9414296588       -0.2992417888
 H          3.3800683836       -4.9234402288       -0.2166121743
 H          4.8492844030       -4.0937795298       -0.7101371549
 C          3.0138016309       -3.1310718179       -1.2913451044
 H          2.0421097117       -2.8960317849       -0.8476035506
 H          2.8266393550       -3.7568563168       -2.1684054820
 C          3.6473851009       -1.8253282056       -1.7884009256
 H          4.6557932898       -2.0233580075       -2.1576793565
 H          3.0410092937       -1.4601664032       -2.6226488417
 H          5.2452412656       -2.2313724173        2.4088425848
 H          6.0783578051       -3.4447037609        1.4282757915
 H          6.5699604229       -1.0457496639        0.8136413864
 H          5.9916364316       -2.0403347814       -0.5368161718
 O          4.6078347480        0.3923669873        1.1006872461
 C          3.6226432618        1.3640146206        1.1020837289
 O          3.7368630873        2.2092699177        2.0117912943
 O          1.7208518529        0.2145307859       -1.7647880987
 C          1.5735431598        2.4057753673        0.1568226037
 C          0.2531490979        1.7681019793        0.5136051103
 C          0.0066151697        1.4275955575        1.8412402346
 C         -1.1658255184        0.7904077315        2.1995972931
 C         -2.1138647611        0.4707424335        1.2421934368
 C         -1.8682346751        0.7881440161       -0.0861210571
 C         -0.6975571270        1.4475476533       -0.4412211882
 H         -0.5159914464        1.6787541331       -1.4785485685
 N         -2.8182845668        0.4666460804       -1.0682671216
 S         -3.5754462861       -1.0280436020       -1.0175067504
 O         -2.7410247801       -2.0401903410       -0.4124131894
 O         -4.0070115886       -1.2768948569       -2.3758722386
 C         -5.0112540632       -0.7309052978       -0.0047587279
 C         -5.3071343968       -1.5849987221        1.0393637712
 C         -6.4373243459       -1.3426460295        1.8048903405
 C         -7.2481867418       -0.2566135919        1.5135955617
 C         -6.9389055485        0.5903151068        0.4596618750
 C         -5.8115770343        0.3526732336       -0.3100954656
 H         -5.5381515215        0.9856798811       -1.1375385934
 H         -7.5714590049        1.4343008384        0.2363598632
 H         -8.1260731640       -0.0691234893        2.1114959326
 H         -6.6791808918       -2.0005576188        2.6241410814
 H         -4.6440236045       -2.4131578161        1.2336401215
 H         -2.5208527741        0.6896200176       -2.0072100315
 H         -3.0247916908       -0.0373327475        1.5133728591
 H         -1.3451096164        0.5366579030        3.2334424939
 H          0.7558667268        1.6607170960        2.5856023982
 H          1.8613130733        3.0735251421        0.9797211267
 C          1.5465585907        3.2043760718       -1.1294511612
 C          0.8441584946        4.5276091537       -1.1571420861
 C          2.3403548437        4.4715034643       -1.2178398626
 H          2.8293082893        4.7080006937       -2.1510509652
 H          2.9009383099        4.7708317629       -0.3442644141
 H          0.3040949486        4.8074340804       -2.0487413029
 H          0.3868170556        4.8663353523       -0.2399468697
 H          1.5052108666        2.5866828162       -2.0180961900
