  62
        -98.94576804
 C         -2.3149576847       -0.9641546233        0.2756934932
 C         -2.1330462081       -0.0733876874       -0.8100311384
 C         -2.6011377033        1.3034663529       -0.5919595503
 C         -3.1171913927        1.6439939769        0.6030832609
 C         -3.5632410712        3.0258555852        0.9824452142
 C         -2.4136714784        3.8311332476        1.6051003253
 C         -1.1213829232        3.8013632871        0.7881625643
 H         -0.7213800490        2.7844881385        0.7868954265
 H         -0.3968304447        4.4319122182        1.3082567365
 C         -1.2788080778        4.2831459432       -0.6607826582
 H         -0.4591963856        4.9643448851       -0.8975706511
 H         -2.2055686272        4.8487290296       -0.7633385175
 C         -1.2491285603        3.1641527162       -1.7030604393
 H         -0.3733007022        2.5317280640       -1.5403410046
 H         -1.1482338533        3.6215855224       -2.6904770986
 C         -2.4879565434        2.2618170730       -1.7442840720
 H         -2.4138894409        1.6405506069       -2.6414511586
 H         -3.3892139636        2.8734740552       -1.8226285024
 H         -2.2029282093        3.4234503486        2.5967383959
 H         -2.7446695091        4.8640761981        1.7276647130
 H         -4.3701222834        2.9388443874        1.7121101167
 H         -3.9405812548        3.5356642451        0.0981101756
 O         -3.2429175528        0.7679632452        1.6337562040
 C         -2.8525104005       -0.5540418243        1.4950490159
 O         -3.0224549042       -1.2511652669        2.5171977554
 O         -1.6114635566       -0.4068400507       -1.9046864180
 C         -1.8919254565       -2.4166888713        0.1434039870
 C         -0.4031348097       -2.4982650956       -0.0954423593
 C          0.1725500196       -3.2230251443       -1.1297204262
 C          1.5489362548       -3.2568462059       -1.2776917623
 C          2.3771757660       -2.5817225777       -0.4007038579
 C          1.8116747053       -1.8514236090        0.6380177791
 C          0.4324856410       -1.8147844159        0.7802030124
 H         -0.0098953960       -1.2514283811        1.5932522547
 N          2.6315582580       -1.1816809763        1.5616062041
 S          3.9542465633       -0.2884613382        1.0685286662
 O          4.9483187231       -1.1724298343        0.5144236011
 O          4.3460860028        0.4620376052        2.2394009200
 C          3.3584382632        0.8238162862       -0.1899905357
 C          2.8078382315        2.0254793561        0.2103085625
 C          2.3279025524        2.8975157530       -0.7523863399
 C          2.3935457464        2.5484869437       -2.0930291530
 C          2.9416377102        1.3353038027       -2.4782242104
 C          3.4325333392        0.4625701755       -1.5199402444
 H          3.8796820061       -0.4811916944       -1.7838397122
 H          2.9884242448        1.0657007144       -3.5209324705
 H          2.0153473571        3.2272444771       -2.8410753777
 H          1.9014485928        3.8418531125       -0.4549852762
 H          2.7834040542        2.2632978429        1.2618514998
 H          2.1203992652       -0.6913413906        2.2802266103
 H          3.4501347516       -2.6172074701       -0.4955601146
 H          1.9842561403       -3.8241867549       -2.0862569311
 H         -0.4543164945       -3.7598797874       -1.8219468467
 H         -2.1000644352       -2.8825736624        1.1179581690
 C         -2.7207315196       -3.1137117478       -0.9145879977
 C         -2.9507576329       -4.5921051869       -0.8357249604
 C         -4.0717678230       -3.6422872496       -0.5412624672
 H         -4.8762965341       -3.5537034314       -1.2558029199
 H         -4.3860725300       -3.5211949084        0.4855450060
 H         -2.9893787408       -5.1586822378       -1.7538038693
 H         -2.5072079415       -5.1241124474       -0.0076036487
 H         -2.6148555749       -2.6617932440       -1.8937048021
