  62
        -98.94468046
 C          2.5453603402        0.8662299649        0.2952054959
 C          2.5051220682       -0.0178550078       -0.8104385406
 C          2.8142973824       -1.4260251521       -0.5219284984
 C          3.1347443171       -1.7958063184        0.7301212687
 C          3.4162918578       -3.2023102952        1.1699374177
 C          2.1430864073       -3.8969943344        1.6716796757
 C          0.9487964705       -3.7772536708        0.7238971361
 H          0.1301500283       -4.3547930736        1.1597191633
 H          0.6112836458       -2.7383798353        0.6809323373
 C          1.2141624765       -4.2737402497       -0.7039186547
 H          0.3573023076       -4.8672086626       -1.0299779851
 H          2.0884893722       -4.9264930816       -0.7169341751
 C          1.3938532080       -3.1570282717       -1.7342874835
 H          0.5737090870       -2.4398078763       -1.6313000548
 H          1.3187495807       -3.5978740764       -2.7326282216
 C          2.7253828266       -2.3968199289       -1.6651755132
 H          3.5538841169       -3.1077760741       -1.6365729720
 H          2.8164492990       -1.7992784496       -2.5770480870
 H          2.3707799624       -4.9520034207        1.8362494380
 H          1.8622097338       -3.4552884601        2.6304165362
 H          3.8424754413       -3.7590646350        0.3377705090
 H          4.1432535067       -3.1675403630        1.9833615868
 O          3.2039397206       -0.9152683908        1.7600264874
 C          2.8817486168        0.4166639861        1.5767633833
 O          2.9453358107        1.1030180600        2.6164166244
 O          2.2297387086        0.3239902288       -1.9937596516
 C          2.1473169444        2.3354145530        0.2157867193
 C          0.6403914392        2.4086416680        0.2732876245
 C         -0.0199628254        2.9564702031        1.3668984742
 C         -1.4011404336        2.9135653615        1.4522173037
 C         -2.1497895998        2.2970671693        0.4642040646
 C         -1.4960355399        1.7481935021       -0.6296802137
 C         -0.1188377046        1.8321683869       -0.7350841854
 H          0.3750764775        1.3851747449       -1.5850366010
 N         -2.2428545813        1.0163244874       -1.5930473471
 S         -2.4755090051       -0.5730578134       -1.0626416788
 O         -1.3510356381       -1.0429831018       -0.2845984985
 O         -2.8087666648       -1.3423149890       -2.2419163977
 C         -3.9119506318       -0.4150380797       -0.0252579826
 C         -5.1271851326       -0.1535247677       -0.6277275309
 C         -6.2482723257        0.0080295385        0.1703542139
 C         -6.1345539009       -0.0920170724        1.5492582089
 C         -4.9074188719       -0.3563462206        2.1382985351
 C         -3.7820254152       -0.5191807853        1.3452349106
 H         -2.8060870410       -0.7205447689        1.7580496644
 H         -4.8203058764       -0.4332225499        3.2102221957
 H         -7.0075108632        0.0364553909        2.1695275477
 H         -7.2045107605        0.2127480197       -0.2834177904
 H         -5.1674886354       -0.0887314190       -1.7022430651
 H         -1.7654174002        0.9736562839       -2.4847317857
 H         -3.2234300503        2.2315943453        0.5358589882
 H         -1.8983668475        3.3447970128        2.3075064043
 H          0.5612386053        3.3921995798        2.1666853734
 H          2.5449540986        2.8037635791        1.1258746217
 C          2.7107255156        3.0654644477       -0.9857739893
 C          2.7926955195        4.5610615368       -0.9481756937
 C          4.0436366396        3.7393119990       -0.8729134086
 H          4.7034505547        3.7191026708       -1.7271566098
 H          4.5564899641        3.6754631381        0.0758630157
 H          2.5917490644        5.1098734111       -1.8553172142
 H          2.4589368859        5.0574609813       -0.0495909368
 H          2.4724796742        2.5959195349       -1.9306203097
