  62
        -98.92842195
 C         -2.4279834205       -0.0305405807       -0.5935125794
 C         -3.4213175005        0.7216115099        0.0776576900
 C         -4.6622130305        0.0011783502        0.4325763006
 C         -4.7854607905       -1.3054960800        0.1391226418
 C         -5.9008674405       -2.2910794798        0.4196231626
 C         -7.2902281105       -1.8057961694        0.8259029522
 C         -8.0448272905       -1.0392338503       -0.2596326685
 H         -8.9760478605       -0.6656968999        0.1719782712
 H         -8.3053683305       -1.7361104410       -1.0602497479
 C         -7.2880317405        0.1262593391       -0.8918158095
 H         -7.9423116805        0.5830841385       -1.6394210399
 H         -6.4102104405       -0.2504288114       -1.4209601292
 C         -6.8505941005        1.2242188800        0.0759117095
 H         -7.7133195105        1.5808595705        0.6418701092
 H         -6.4751361505        2.0589274694       -0.5222159912
 C         -5.7410568405        0.8311845808        1.0670156399
 H         -6.1490083805        0.3281416016        1.9403791903
 H         -5.2577357205        1.7494066311        1.4134653491
 H         -7.2328892505       -1.2171125086        1.7366959417
 H         -7.8735212506       -2.6996231192        1.0637036630
 H         -5.9867020506       -2.9050369906       -0.4825383068
 H         -5.5219855206       -2.9524131391        1.2067947632
 O         -3.7830280105       -1.9981735806       -0.4785677076
 C         -2.6056448805       -1.3883323310       -0.8653114882
 O         -1.8030630005       -2.1482801715       -1.4448668575
 H          1.4099348795       -0.3804402114       -1.2751639490
 C          1.2010068995       -0.0214936805       -0.2762247594
 C         -0.0586053405        0.4810505298        0.0156707802
 C         -0.3176420205        0.9237131309        1.3086252098
 C          0.6636494595        0.8576030017        2.2812133899
 C          1.9174996495        0.3514947815        1.9878122703
 C          2.1877707895       -0.0911082197        0.6999215807
 N          3.4562327295       -0.6175255200        0.3993911612
 S          4.7944054795        0.2178631605        1.0087301604
 O          5.0266866995       -0.2195029083        2.3623376508
 O          4.6094594295        1.6398620004        0.8271553392
 C          6.0913066595       -0.3831846204       -0.0545158490
 C          6.4437291295        0.3540121586       -1.1692234297
 C          7.4386533995       -0.1288809622       -2.0045768793
 C          8.0584089695       -1.3350259819       -1.7139806982
 C          7.6932303395       -2.0636064309       -0.5915823375
 C          6.6998030295       -1.5863755802        0.2485353120
 H          6.3896644095       -2.1130489494        1.1358960025
 H          8.1794785494       -2.9994647307       -0.3681744867
 H          8.8332836495       -1.7078747225       -2.3650456979
 H          7.7267250095        0.4365214871       -2.8761847997
 H          5.9425871795        1.2914798284       -1.3503877705
 H          3.5649129095       -0.8212657608       -0.5847066586
 H          2.6917187695        0.3004638121        2.7365807804
 H          0.4509408295        1.2064795226        3.2808870796
 H         -1.2906801605        1.3292892811        1.5402725694
 C         -1.1079862605        0.5565233888       -1.0643198199
 H         -0.7812799405       -0.1023467119       -1.8847911593
 C         -1.2534081805        1.9570401483       -1.6457368611
 C         -0.7388900104        3.1929499889       -0.9783585622
 C         -0.0541602304        2.6668359778       -2.2015594917
 H         -0.1563560504        3.2083096870       -3.1297637322
 H          0.9091003296        2.1978677879       -2.0655640313
 H         -0.2352874504        3.0911067697       -0.0298292021
 H         -1.3365579704        4.0880864188       -1.0567984130
 H         -2.1795918805        2.0655620179       -2.2009589412
 O         -3.3029008605        1.9351940702        0.3833901889
