  62
        -98.93553973
 C         -2.6783898021       -1.1268431833        0.6401832158
 C         -2.7374064284        0.1294185134        1.2969986822
 C         -3.9213011491        0.9510280203        1.0290418835
 C         -4.8795529960        0.4859114377        0.2072451638
 C         -6.1631895014        1.1872060958       -0.1456532344
 C         -6.0260858155        2.2071573248       -1.2841954692
 C         -5.2897725172        3.4961494121       -0.9172454152
 H         -5.4581867842        4.2047295961       -1.7305654708
 H         -5.7324069739        3.9229550508       -0.0167669555
 C         -3.7769773996        3.3259263820       -0.7180138547
 H         -3.2467826089        4.1231310072       -1.2441833572
 H         -3.4527106645        2.3819845560       -1.1629659023
 C         -3.3201236766        3.3660221959        0.7404889134
 H         -2.2401593481        3.1956579516        0.7651237922
 H         -3.5135036371        4.3568070224        1.1579651573
 C         -3.9875282831        2.3177728890        1.6404261347
 H         -3.4449443389        2.2847436174        2.5884375108
 H         -5.0224437564        2.5965196783        1.8381287075
 H         -5.5210089029        1.7266820992       -2.1252820156
 H         -7.0353805619        2.4704798105       -1.6086495931
 H         -6.5658254467        1.6802690914        0.7395808720
 H         -6.8637177416        0.4112599737       -0.4615917562
 O         -4.7926837123       -0.7259344762       -0.3980118815
 C         -3.6854613792       -1.5517134333       -0.2275983073
 O         -3.7456694932       -2.6039139687       -0.8879081269
 O         -1.8411828750        0.5365744989        2.0856158922
 C         -1.4451361731       -1.9700175248        0.9107274636
 C         -0.3606018536       -1.6330100309       -0.0807014245
 C         -0.5928268488       -1.6897683572       -1.4515923199
 C          0.4102417816       -1.3594734475       -2.3443437474
 C          1.6588393530       -0.9637799323       -1.8953080752
 C          1.8944534676       -0.8829049750       -0.5297026155
 C          0.8866694198       -1.2232373137        0.3652511452
 H          1.0694354630       -1.1486082235        1.4291771085
 N          3.1652241880       -0.4938952563       -0.0528103782
 S          3.7770528268        1.0189786462       -0.4962563348
 O          3.1198095189        2.0624829100        0.2627721808
 O          3.7288156149        1.1456923712       -1.9294817446
 C          5.4654551317        0.8406797035        0.0432224627
 C          6.3178397868        0.0681615186       -0.7221065013
 C          7.6261515260       -0.1037791571       -0.2999656514
 C          8.0576216508        0.4956220528        0.8742932117
 C          7.1906124902        1.2690832935        1.6308580155
 C          5.8798699728        1.4437921113        1.2145926186
 H          5.1732023644        2.0417225294        1.7676815100
 H          7.5291726441        1.7356957166        2.5419674605
 H          9.0766378982        0.3607328191        1.2009910787
 H          8.3040870931       -0.7030790001       -0.8860608493
 H          5.9414323280       -0.3724611429       -1.6302309281
 H          3.2052709645       -0.5489711712        0.9576140265
 H          2.4374697509       -0.6906031567       -2.5875083594
 H          0.2190080596       -1.4116434078       -3.4058921822
 H         -1.5670378130       -1.9928726528       -1.8058531933
 H         -1.0964470103       -1.6373154417        1.9018510079
 C         -1.7308213619       -3.4610857061        1.0122611962
 C         -1.2639115284       -4.4705505710        0.0114321683
 C         -0.6206709240       -4.4081850272        1.3620499495
 H         -0.8164467731       -5.1987387617        2.0703182209
 H          0.3774399299       -3.9997006662        1.4175210661
 H         -1.9287245277       -5.2901518172       -0.2140077163
 H         -0.6972878064       -4.1259553152       -0.8388109497
 H         -2.6961244702       -3.6542579914        1.4688491795
