  62
        -98.93901619
 C         -2.1083914364       -0.8804272911        0.3662179087
 C         -2.7589933776       -0.0087137820        1.2756454131
 C         -3.2157194549        1.2769464964        0.7325971277
 C         -2.9376252814        1.5830205166       -0.5475219796
 C         -3.3756043869        2.8381128958       -1.2439097356
 C         -4.7336154186        2.6472007828       -1.9339173786
 C         -5.8006290756        2.0225975575       -1.0347165180
 H         -6.7224394822        1.9639944186       -1.6172508067
 H         -5.5075157256        0.9981108711       -0.7939099186
 C         -6.0651916877        2.7932679029        0.2663069129
 H         -5.6801227378        3.8097924602        0.1788888068
 H         -7.1442614468        2.8666016627        0.4162729276
 C         -5.4848780334        2.1382043172        1.5210647714
 H         -5.7931467644        1.0904868020        1.5632435166
 H         -5.9103324552        2.6396206351        2.3942556203
 C         -3.9583990773        2.1977081478        1.6597739073
 H         -3.6167874781        3.2273054453        1.5342488585
 H         -3.7028620428        1.8715257354        2.6723164238
 H         -5.0784029807        3.6195093759       -2.2903350392
 H         -4.5922642179        1.9978097521       -2.8010419377
 H         -3.4349176008        3.6471671729       -0.5181975442
 H         -2.6254324584        3.0914025553       -1.9952838868
 O         -2.2518364905        0.7524445829       -1.3726056617
 C         -1.8185647817       -0.4965004224       -0.9448542743
 O         -1.2020640120       -1.1391494245       -1.8149209218
 H          0.3665131658       -0.5416990673        1.3878468408
 C          0.7254729347       -1.4107595953        0.8472983791
 C         -0.1747846495       -2.4135576736        0.5071782802
 C          0.2990363992       -3.5126066536       -0.1954098835
 C          1.6328463426       -3.5910932158       -0.5592359274
 C          2.5195329782       -2.5814192646       -0.2346812230
 C          2.0555086621       -1.4801234068        0.4708757440
 N          2.9537887524       -0.4296262057        0.7865453741
 S          3.3724859509        0.5714828439       -0.5137092837
 O          2.4923149282        1.7235149759       -0.5296778123
 O          3.4429561599       -0.2138907945       -1.7178373519
 C          5.0113176225        1.0800722121       -0.0296768473
 C          5.2033381285        2.3136424258        0.5603917663
 C          6.4807980302        2.6743702991        0.9602335666
 C          7.5375572179        1.7978431427        0.7680001537
 C          7.3287000884        0.5616176864        0.1746019891
 C          6.0543056222        0.1962616858       -0.2275894843
 H          5.8458434619       -0.7491447377       -0.7003223596
 H          8.1529981601       -0.1168742451        0.0249081402
 H          8.5304337507        2.0807912389        1.0802158349
 H          6.6456871785        3.6358431072        1.4194118549
 H          4.3539168634        2.9662383656        0.6826382912
 H          2.5737123468        0.1719222388        1.5067645878
 H          3.5521718896       -2.6209455076       -0.5390240529
 H          1.9828815985       -4.4478052926       -1.1149611223
 H         -0.3815486905       -4.2955862490       -0.4871352142
 C         -1.6171699614       -2.2150211296        0.9008177723
 H         -1.6553481953       -2.0966917657        1.9973380993
 C         -2.5115094887       -3.3983123287        0.5649863477
 C         -3.9712642905       -3.2062644858        0.2847222785
 C         -3.0474971629       -3.6330563724       -0.8143107257
 H         -3.1142264008       -4.6505331039       -1.1710598223
 H         -2.7867476535       -2.9185589160       -1.5791070231
 H         -4.6698595893       -3.9269996919        0.6823412917
 H         -4.3484572086       -2.1938318092        0.2701614139
 H         -2.2477180322       -4.2802866504        1.1404065655
 O         -2.9389506576       -0.2906154586        2.4911104536
