  62
        -98.93834665
 C          2.4292414926        1.2141567766       -0.0700252907
 C          3.1518138925        0.4589623959        0.8806368032
 C          3.9788140082       -0.6425013903        0.3588420498
 C          3.9939326529       -0.8870074529       -0.9652408668
 C          4.7683725608       -1.9036218646       -1.7778061730
 C          5.4125620755       -3.1147170819       -1.1073140169
 C          4.4277903088       -4.1123469388       -0.4991504504
 H          3.8756711747       -4.5958942538       -1.3089072726
 H          5.0012750171       -4.8837668123        0.0194114128
 C          3.4039916204       -3.5227229573        0.4680810128
 H          2.7445102554       -2.8372271996       -0.0690459031
 H          2.7814596593       -4.3425481614        0.8374856817
 C          3.9894151432       -2.8013706651        1.6812251449
 H          4.6865972031       -3.4618083836        2.2002255265
 H          3.1635204171       -2.5854617310        2.3651412539
 C          4.7016927805       -1.4696400131        1.3823694793
 H          4.7126794703       -0.8794307672        2.3033870373
 H          5.7351800839       -1.6305328010        1.0853777565
 H          5.9723773308       -3.6386650036       -1.8867676099
 H          6.1352741028       -2.7946624833       -0.3625885716
 H          4.0776470087       -2.2492863280       -2.5532487764
 H          5.5523665815       -1.3379021116       -2.2932530421
 O          3.2695527916       -0.1349311537       -1.8444532785
 C          2.4651319863        0.9146147310       -1.4307231083
 O          1.8491308196        1.4825878928       -2.3508550909
 H          0.2560679362        0.0642747036        0.7908475666
 C         -0.4010097309        0.8065392682        0.3528986486
 C          0.1028836739        2.0709529428        0.0715468423
 C         -0.7568326442        3.0171458358       -0.4699898375
 C         -2.0754128613        2.6927025102       -0.7406012189
 C         -2.5654957411        1.4272078637       -0.4776677009
 C         -1.7186253362        0.4765525634        0.0778169854
 N         -2.2040286386       -0.8171024866        0.3421530463
 S         -3.6046849869       -0.9573398684        1.2599308264
 O         -3.7539817937        0.1557624568        2.1686392995
 O         -3.5331418048       -2.2719388674        1.8597674289
 C         -4.9127729945       -0.9409112096        0.0527783375
 C         -5.9299549962       -0.0119279548        0.1514424333
 C         -6.9431223493       -0.0252635588       -0.7946981712
 C         -6.9210675596       -0.9621510452       -1.8164550853
 C         -5.8932770841       -1.8898736662       -1.8998412672
 C         -4.8783899052       -1.8831043544       -0.9564538736
 H         -4.0643574666       -2.5882522037       -0.9831516617
 H         -5.8792204861       -2.6168842596       -2.6958400196
 H         -7.7095295244       -0.9699731862       -2.5523611130
 H         -7.7431486611        0.6946619600       -0.7315013990
 H         -5.9017120290        0.7011374966        0.9598452792
 H         -1.4963793455       -1.4505845073        0.6853466931
 H         -3.5889307413        1.1691329223       -0.6954536144
 H         -2.7299821621        3.4368686310       -1.1678546265
 H         -0.3940040372        4.0086685102       -0.6849016247
 C          1.5479287042        2.3539166721        0.4049309682
 H          1.6450529254        2.3612271565        1.5014981348
 C          2.0502339019        3.6756196916       -0.1363762899
 C          1.8383591551        4.9402565895        0.6393920725
 C          3.2080325546        4.3404541912        0.5439444830
 H          3.9492403824        4.8354389847       -0.0652466622
 H          3.6166074440        3.8525104939        1.4170694639
 H          1.6414402092        5.8520413373        0.0960155240
 H          1.3183974876        4.8670091469        1.5827218650
 H          2.0117030289        3.7225629512       -1.2187553563
 O          3.1091942410        0.6924366200        2.1200897710
