  62
        -98.94186110
 C         -1.1795956850       -1.5502381419        0.5005901765
 C         -2.1393413510       -1.2095647938       -0.4811232046
 C         -3.1982986468       -0.2769898606       -0.0596437671
 C         -3.2036154957        0.1958928544        1.1982392670
 C         -4.1990845026        1.1262872545        1.8446704656
 C         -4.6504415646        2.3504649878        1.0359624320
 C         -3.5924935959        2.9371200505        0.0892634353
 H         -3.5268166766        4.0143817303        0.2562402552
 H         -2.6060792742        2.5216551901        0.3089848411
 C         -3.9250799645        2.7140951389       -1.3882926407
 H         -4.9880885458        2.9145846872       -1.5421398312
 H         -3.3639812963        3.4386174846       -1.9836593816
 C         -3.5923841074        1.3269211533       -1.9355180807
 H         -2.5063518330        1.2040956312       -1.9859019581
 H         -3.9692724472        1.2694913889       -2.9597396854
 C         -4.1599490956        0.1446861192       -1.1324126941
 H         -5.1422089974        0.3770512543       -0.7281855521
 H         -4.2516372034       -0.7085969860       -1.8098855411
 H         -5.5387564019        2.0981079529        0.4580840098
 H         -4.9509258356        3.1113486373        1.7584171525
 H         -5.0789669712        0.5414070891        2.1287131814
 H         -3.7184174938        1.4573191565        2.7684422782
 O         -2.2609197013       -0.1643520200        2.1145234154
 C         -1.2126398426       -1.0044030336        1.7814996144
 O         -0.3867502402       -1.1878164387        2.7005902701
 H          0.4302949967        0.1793717317       -0.1559683614
 C          0.9540695225       -0.3852861798       -0.9110554245
 C          0.8221444419       -1.7657723913       -0.9465155031
 C          1.4825152192       -2.4653622578       -1.9490510301
 C          2.2378585159       -1.7879048679       -2.8911170522
 C          2.3709315581       -0.4114496006       -2.8458136121
 C          1.7183853032        0.2961642732       -1.8431188806
 N          1.8131911413        1.6927435590       -1.7456918712
 S          1.8411660655        2.4063079599       -0.2328704386
 O          0.5275675780        2.3927297405        0.3604198914
 O          2.4098015263        3.7162020802       -0.4711791529
 C          2.9916673174        1.4158621782        0.7048011236
 C          4.3234979489        1.4939023973        0.3423672524
 C          5.2492888459        0.7027222390        1.0008512465
 C          4.8295069360       -0.1570945735        2.0051144878
 C          3.4920871360       -0.2194736501        2.3616461301
 C          2.5605000934        0.5731959168        1.7081186543
 H          1.5148254038        0.5323969130        1.9718792754
 H          3.1542672767       -0.8839778114        3.1411553708
 H          5.5472484810       -0.7799287455        2.5152122286
 H          6.2910563619        0.7547290140        0.7286471360
 H          4.6109370535        2.1829420470       -0.4351316101
 H          2.4652603468        2.1259524015       -2.3823814364
 H          2.9615774062        0.1121203822       -3.5815242539
 H          2.7371053756       -2.3419310722       -3.6713295363
 H          1.3980541951       -3.5386920204       -1.9978189058
 C         -0.0010855710       -2.4310674564        0.1323493582
 H          0.6243374221       -2.4948750353        1.0360987620
 C         -0.4629987994       -3.8248327482       -0.2399440567
 C          0.3955797503       -5.0144506781        0.0652214721
 C         -0.8543649638       -4.7704958161        0.8544796732
 H         -1.7031384431       -5.4188334329        0.6973207242
 H         -0.7590204334       -4.4164423291        1.8710176929
 H          0.4039479866       -5.8366972087       -0.6343259684
 H          1.3421178242       -4.8379264633        0.5534437820
 H         -1.0553403408       -3.8362851258       -1.1472466382
 O         -2.1171874727       -1.6598411142       -1.6561752615
