  62
        -98.94263248
 C         -1.9534362118       -1.5582143171       -0.0360054368
 C         -1.5816010693       -0.2819675756       -0.5294855924
 C         -2.6771059963        0.6946981973       -0.6581945580
 C         -3.9323837345        0.3335991012       -0.3396456920
 C         -5.1291329055        1.2377153003       -0.3920179544
 C         -5.3604876743        1.9299787237        0.9582626303
 C         -4.1044269661        2.5785286044        1.5399471207
 H         -4.3925952955        3.0652437848        2.4743068816
 H         -3.3842764484        1.7971856890        1.7939938787
 C         -3.4347540627        3.6029351460        0.6137937267
 H         -4.1400964742        3.9238619091       -0.1536785172
 H         -3.1729531049        4.4853970669        1.2014806278
 C         -2.1471093549        3.1135303095       -0.0520655090
 H         -1.6524475962        3.9803443242       -0.4970368544
 H         -1.4747734377        2.7023927901        0.7048701612
 C         -2.3180057577        2.0655116914       -1.1587240197
 H         -3.0516424595        2.4145667499       -1.8883121500
 H         -1.3528411690        1.9538990649       -1.6613374980
 H         -6.1376135036        2.6858835500        0.8306242329
 H         -5.7245540063        1.1863925396        1.6712103423
 H         -4.9840035777        1.9806318964       -1.1737834088
 H         -6.0054048530        0.6341438438       -0.6352522087
 O         -4.2510846968       -0.9031902450        0.1217255110
 C         -3.2714924832       -1.8625579206        0.3149337192
 O         -3.6930152439       -2.9327468804        0.7979614568
 O         -0.4104313858        0.0396263465       -0.8533827725
 C         -0.9279143681       -2.6554618979        0.1990246988
 C          0.2913367989       -2.0671782609        0.8633176698
 C          0.1709554928       -1.5587159412        2.1534937373
 C          1.2489026037       -0.9678888266        2.7845971321
 C          2.4711478325       -0.8703742565        2.1427967896
 C          2.5993251988       -1.3699542482        0.8541703233
 C          1.5172564620       -1.9720909193        0.2258658703
 H          1.6273146628       -2.3348994681       -0.7840144176
 N          3.8347957031       -1.2731317114        0.1863206641
 S          4.5889666904        0.2193841978        0.1114089039
 O          5.5863869816        0.0777432628       -0.9261017403
 O          5.0837889826        0.5675847884        1.4201982477
 C          3.3359396097        1.3785320365       -0.3997958104
 C          2.6881762061        2.1497353408        0.5426583997
 C          1.7019672205        3.0271450663        0.1232474623
 C          1.3816083740        3.1146013278       -1.2216464078
 C          2.0364727846        2.3274955688       -2.1549072877
 C          3.0215758945        1.4472451445       -1.7418278672
 H          3.5614060646        0.8263229116       -2.4389246281
 H          1.7786565322        2.3937708550       -3.1999171408
 H          0.6158060075        3.8015846893       -1.5458388939
 H          1.1848280583        3.6378807466        0.8461844969
 H          2.9708397623        2.0579255041        1.5786406313
 H          3.8217401498       -1.6913834486       -0.7330647831
 H          3.3216096691       -0.4076099151        2.6166471852
 H          1.1383378869       -0.5770724121        3.7850940361
 H         -0.7876052799       -1.6224523801        2.6514124753
 H         -1.4055678869       -3.3443313549        0.9148318687
 C         -0.6002564265       -3.4777289610       -1.0386200587
 C         -1.6461124901       -3.7506138997       -2.0768453116
 C         -0.4802013874       -2.8684264165       -2.4021661490
 H          0.2780586618       -3.2520777134       -3.0697330983
 H         -0.6463209742       -1.8066995585       -2.4930710460
 H         -1.6874861604       -4.7358940337       -2.5164464668
 H         -2.6154450862       -3.2932878269       -1.9418526732
 H          0.0729028229       -4.2987360302       -0.8094781098
