  62
        -98.93506438
 C         -2.0010908475       -0.6566146541       -0.3659802315
 C         -3.1465059431       -1.2141678525        0.2545459539
 C         -4.4304038562       -0.5098601599        0.0720549280
 C         -4.4421455973        0.6339701664       -0.6365224994
 C         -5.6069826845        1.5433641856       -0.9254099598
 C         -6.0070549111        2.3991129522        0.2867684245
 C         -6.0687391948        1.6455171896        1.6126242524
 H         -5.0935114925        1.1999209382        1.8168904933
 H         -6.2615527615        2.3775542323        2.4013498106
 C         -7.1483264104        0.5693083013        1.6997659466
 H         -8.1243723247        1.0254931704        1.5199750118
 H         -7.1439868259        0.1888529284        2.7244209858
 C         -6.9848487217       -0.6212745774        0.7521548783
 H         -7.3008694695       -0.3682020157       -0.2564074155
 H         -7.6602718210       -1.4084240265        1.0998398325
 C         -5.5854004742       -1.2275328205        0.7281451170
 H         -5.2673483789       -1.4381618704        1.7555716313
 H         -5.6388114202       -2.2075488105        0.2383836732
 H         -6.9756544888        2.8575600066        0.0799927533
 H         -5.2706271233        3.1996118561        0.3926257806
 H         -6.4523293146        0.9650596783       -1.2865771315
 H         -5.2910643628        2.2095593131       -1.7314336956
 O         -3.3085460652        1.1577044136       -1.1815546675
 C         -2.0701348623        0.5447047014       -1.0724958943
 O         -1.1533478309        1.1654619626       -1.6414872711
 O         -3.1051412750       -2.2680789165        0.9446898943
 C         -0.6841857575       -1.3906576943       -0.1811999792
 C          0.3850525480       -0.4353944742        0.2811315027
 C          0.3937363835       -0.0157275060        1.6079244256
 C          1.3450367089        0.8789610175        2.0612905420
 C          2.3062290320        1.3766415116        1.1995518255
 C          2.3031951339        0.9670271354       -0.1271546666
 C          1.3573239417        0.0549428851       -0.5763391350
 H          1.3536144881       -0.2406910707       -1.6137330235
 N          3.2727304015        1.4746316325       -1.0083864525
 S          4.8689729019        1.4634663458       -0.5149653320
 O          5.1113128628        2.5617969727        0.3870120026
 O          5.6461748713        1.4628060369       -1.7343281083
 C          5.0625752876       -0.0844497161        0.3509132694
 C          4.9370806380       -1.2518294695       -0.3762007285
 C          5.0323680197       -2.4661372385        0.2830825448
 C          5.2465935950       -2.4924473780        1.6529355211
 C          5.3738049387       -1.3121508056        2.3680274270
 C          5.2792858068       -0.0942331069        1.7133741992
 H          5.3727863379        0.8461820165        2.2311839617
 H          5.5425228253       -1.3357876103        3.4325381357
 H          5.3156908670       -3.4393776750        2.1646853130
 H          4.9362090927       -3.3859788811       -0.2711257684
 H          4.7787886276       -1.1938902750       -1.4411516112
 H          3.1708300530        1.1527900126       -1.9590402329
 H          3.0466231430        2.0875341584        1.5289313693
 H          1.3370199759        1.1964095249        3.0929522864
 H         -0.3637065665       -0.3948865600        2.2800903122
 H         -0.8852751513       -2.0985825869        0.6391083909
 C         -0.2543588283       -2.2291065127       -1.3760461414
 C         -1.2712901108       -2.9572034338       -2.2017071743
 C         -0.4976600342       -1.8208883624       -2.7969659468
 H          0.2621118264       -2.0500032843       -3.5305566128
 H         -1.0064330261       -0.8868294644       -2.9765507223
 H         -1.0487424048       -3.9615880357       -2.5288360754
 H         -2.3125283859       -2.7950245993       -1.9637823696
 H          0.6730686765       -2.7580821256       -1.1776541373
