  62
        -98.94416791
 C         -2.1940181004       -0.7656803706       -0.0517950987
 C         -2.9080585479       -0.1056134997        0.9757649956
 C         -3.7053970807        1.0529645975        0.5578543157
 C         -3.6840803385        1.4481443611       -0.7283952387
 C         -4.4225478098        2.6259413545       -1.3042795761
 C         -5.8808034606        2.3255143204       -1.6772319441
 C         -6.8352285957        2.1637654202       -0.4934482062
 H         -6.7390206738        3.0239987411        0.1697906961
 H         -7.8498590782        2.1751906639       -0.8963895109
 C         -6.6375577877        0.8691126976        0.3073820429
 H         -6.0562066045        0.1589081153       -0.2851214319
 H         -7.6086326364        0.4068469824        0.4981722863
 C         -5.9537726473        1.0591803050        1.6614189378
 H         -5.8321313028        0.0767750784        2.1249496193
 H         -6.5905020540        1.6617820794        2.3129560880
 C         -4.5712629178        1.7201955867        1.5835369258
 H         -4.6739770296        2.7827460730        1.3636602072
 H         -4.0823650618        1.6094686185        2.5548575912
 H         -5.9049197194        1.4221674862       -2.2909364318
 H         -6.2367671319        3.1550698999       -2.2924292412
 H         -3.8874187512        2.9139404153       -2.2117027242
 H         -4.3894847140        3.4593811406       -0.6018825194
 O         -2.9468159345        0.8135053267       -1.6781488422
 C         -2.2007463203       -0.3165423953       -1.3726914537
 O         -1.5966063605       -0.8099241366       -2.3425781831
 O         -2.8732362860       -0.4618872641        2.1854520393
 C         -1.3708654578       -1.9920396139        0.2938396954
 C          0.0843085536       -1.7697168811       -0.0395039005
 C          0.8785479026       -2.7268093116       -0.6569643874
 C          2.2129680415       -2.4678324989       -0.9192114475
 C          2.7840442650       -1.2577726611       -0.5725513379
 C          2.0031004386       -0.2978230018        0.0582588591
 C          0.6690355432       -0.5627531916        0.3249340686
 H          0.0630976577        0.1867549609        0.8206350386
 N          2.5731937367        0.9401399696        0.4077787746
 S          3.9785531518        0.9229467727        1.3289449310
 O          4.0450270192       -0.2514871629        2.1677968306
 O          4.0009730466        2.2001287622        2.0082806064
 C          5.2853293272        0.8850630273        0.1206361993
 C          6.2259903016       -0.1256500271        0.1553165745
 C          7.2392562980       -0.1301884875       -0.7907425148
 C          7.2935891430        0.8706585452       -1.7486760515
 C          6.3426138840        1.8802379097       -1.7678642476
 C          5.3278193227        1.8913703433       -0.8243685253
 H          4.5717632562        2.6585227340       -0.8025966200
 H          6.3880045122        2.6568981380       -2.5142622082
 H          8.0817959999        0.8643972984       -2.4848586284
 H          7.9797171036       -0.9137056940       -0.7774238574
 H          6.1396079356       -0.8857183884        0.9153084389
 H          1.9087526938        1.5945051317        0.7952723315
 H          3.8201598566       -1.0497971775       -0.7835718466
 H          2.8158960251       -3.2189694464       -1.4060560880
 H          0.4521562955       -3.6758327512       -0.9372039859
 H         -1.4532288481       -2.1003558881        1.3864474049
 C         -1.9618809869       -3.2229465534       -0.3618447513
 C         -1.8357709774       -4.5652519613        0.2926289463
 C         -3.1612751445       -3.8673153038        0.2639290661
 H         -3.9362460553       -4.2527968084       -0.3814686515
 H         -3.5333125435       -3.4348188241        1.1815201299
 H         -1.7030022854       -5.4342293009       -0.3340010934
 H         -1.3105196297       -4.6150735409        1.2345463901
 H         -1.9282989646       -3.1724384197       -1.4444032506
