  62
        -98.94362408
 C         -0.8501621760       -1.7606191760        0.0874217496
 C          0.0715655495       -2.3683822109       -0.7932313062
 C          1.4846176423       -2.3410542099       -0.3832840322
 C          1.8307815754       -1.7242567090        0.7623034930
 C          3.1780703815       -1.5959946534        1.4394701892
 C          4.4707131437       -1.7263637875        0.6364830785
 C          4.6640651914       -0.6819199304       -0.4608413298
 H          4.7754903156        0.3018801622        0.0007377977
 H          5.5960268033       -0.9120791476       -0.9826525689
 C          3.5391737651       -0.5858541598       -1.4894247841
 H          2.6358794927       -0.1825010840       -1.0253361604
 H          3.8413501679        0.1362178748       -2.2540245806
 C          3.1849057637       -1.8909687081       -2.2017052440
 H          2.5142845735       -1.6327505787       -3.0260231057
 H          4.0860625880       -2.3354572085       -2.6291372579
 C          2.4699059396       -2.9483811403       -1.3384543567
 H          1.8957480814       -3.5968003614       -2.0066764354
 H          3.1814939231       -3.5750894324       -0.8052008278
 H          5.2906288932       -1.6100490457        1.3504165420
 H          4.5583384979       -2.7242098407        0.2165022920
 H          3.1592034329       -0.6213935876        1.9346107694
 H          3.1919068573       -2.3514668230        2.2330689542
 O          0.9054186236       -1.1367110914        1.5742071743
 C         -0.4442098780       -1.1326114913        1.2633988465
 O         -1.1620980342       -0.5505760403        2.0969747022
 O         -0.2713950746       -2.9232528184       -1.8736850536
 C         -2.3209777811       -1.7242137125       -0.2790924671
 C         -2.8190072519       -0.2997216589       -0.3013783489
 C         -4.0878888547        0.0661102126        0.1311613004
 C         -4.4808457016        1.3930569305        0.1051192602
 C         -3.6187907678        2.3807867401       -0.3342531358
 C         -2.3496382859        2.0229465074       -0.7785199880
 C         -1.9709192505        0.6906417696       -0.7796082826
 H         -0.9881098424        0.4251775447       -1.1401747579
 N         -1.4496543562        3.0010681390       -1.2256053662
 S          0.2007838632        2.8213827690       -1.1996538084
 O          0.6982187653        4.1401463341       -1.5350768509
 O          0.6110445123        1.7621360350       -2.0889586022
 C          0.7358322214        2.4436657433        0.4633724432
 C         -0.1195602516        2.4137976176        1.5441073692
 C          0.4035013619        2.1584035988        2.8031173388
 C          1.7633236815        1.9556277915        2.9635106312
 C          2.6135965711        2.0040899827        1.8689813387
 C          2.0959278006        2.2459673552        0.6082439126
 H          2.7177200991        2.2858262316       -0.2724698606
 H          3.6753074136        1.8584803834        1.9945476122
 H          2.1624299195        1.7549720745        3.9454692297
 H         -0.2621435710        2.1067742795        3.6491175455
 H         -1.1795560987        2.5580965782        1.4141513169
 H         -1.7291475879        3.9589321869       -1.0779881536
 H         -3.9177332109        3.4177725238       -0.3334184310
 H         -5.4680904287        1.6645503602        0.4465223980
 H         -4.7667465278       -0.6871043649        0.4958823286
 H         -2.3824817467       -2.1300338054       -1.3004913146
 C         -3.1179690214       -2.6182113473        0.6498929173
 C         -4.3311858910       -3.3455059886        0.1539978235
 C         -3.0698905860       -4.1012386324        0.4415613786
 H         -3.0362428158       -4.7437448470        1.3085394026
 H         -2.4864756859       -4.4633113676       -0.3925327858
 H         -5.1666769737       -3.4735547215        0.8257396533
 H         -4.6112535762       -3.2063546464       -0.8793666405
 H         -3.1173567842       -2.2560017749        1.6719357727
