  62
        -98.93499900
 C          2.3568844112        1.3604017566       -0.0902966523
 C          3.2443545834        0.8563024286        0.8929617040
 C          4.2479340190       -0.1376544491        0.4666107292
 C          4.2636474363       -0.5236447986       -0.8223796421
 C          5.1638614644       -1.5271103315       -1.4944207107
 C          4.7984775519       -2.9800351113       -1.1568058384
 C          4.5416944819       -3.2472377566        0.3234923346
 H          3.7152333590       -2.6199014889        0.6628307026
 H          4.2180468535       -4.2869453869        0.4213452609
 C          5.7468256428       -3.0431663448        1.2389395633
 H          6.5700119471       -3.6722075988        0.8934337868
 H          5.4579800389       -3.3916842729        2.2337245746
 C          6.2512360545       -1.6036366486        1.3718789261
 H          6.8656145904       -1.3181852830        0.5220146724
 H          6.9015648705       -1.5670573802        2.2505179070
 C          5.1548859583       -0.5671216959        1.5944660392
 H          4.4984328876       -0.9033087842        2.4052729384
 H          5.6153197160        0.3567771080        1.9642614119
 H          3.8893065583       -3.2388255361       -1.7056012035
 H          5.6021701616       -3.6274708779       -1.5120134441
 H          5.0447696922       -1.3802451801       -2.5703605061
 H          6.2014387199       -1.3246449887       -1.2456722009
 O          3.3771574251       -0.0293375279       -1.7319201631
 C          2.4144602888        0.9129371039       -1.4097220928
 O          1.7023957924        1.2461623840       -2.3766537620
 O          3.2119164303        1.2324394964        2.0960364631
 C          1.3707691705        2.4240422802        0.3616471529
 C          0.0147588767        1.8422511355        0.6681163911
 C         -0.5938404468        2.0601889637        1.8987107138
 C         -1.8416134594        1.5267537759        2.1711043217
 C         -2.5106785197        0.7742306473        1.2223810268
 C         -1.9069755002        0.5416941159       -0.0066643471
 C         -0.6522573736        1.0713494419       -0.2742132626
 H         -0.1858392316        0.8874353177       -1.2310616093
 N         -2.5811857211       -0.2003947481       -0.9904006288
 S         -3.3229199923       -1.6390050997       -0.5537349541
 O         -2.6459046101       -2.2716818091        0.5554170166
 O         -3.4108300122       -2.4079849569       -1.7757481776
 C         -4.9608234691       -1.1361098526       -0.0673047536
 C         -5.6768130616       -0.3286885393       -0.9295158040
 C         -6.9570434940        0.0625353610       -0.5716943354
 C         -7.4984048779       -0.3609214101        0.6331034781
 C         -6.7683426488       -1.1744917866        1.4858384188
 C         -5.4861603111       -1.5681016041        1.1347151355
 H         -4.8784926627       -2.1935166335        1.7692818340
 H         -7.1907593414       -1.5028802280        2.4218572007
 H         -8.4950421593       -0.0545534589        0.9090751768
 H         -7.5272145798        0.6960351353       -1.2319297082
 H         -5.2206457398       -0.0223973564       -1.8561302638
 H         -2.0549342523       -0.3051914876       -1.8460837035
 H         -3.4833737611        0.3584461434        1.4283075407
 H         -2.3012299536        1.7017089034        3.1317783918
 H         -0.0751960722        2.6398354826        2.6482438042
 H          1.7894022417        2.7954000391        1.3103886101
 C          1.3072040234        3.6084648353       -0.5952375867
 C          0.1190199336        3.9413324969       -1.4420023787
 C          0.4552356239        4.7971629134       -0.2602241728
 H          0.8545068613        5.7856519614       -0.4287369076
 H         -0.1823946630        4.7174894142        0.6073576942
 H          0.3073519536        4.3222942069       -2.4342619602
 H         -0.7503940598        3.3065198170       -1.3804035496
 H          2.2775586681        3.8159743201       -1.0361816227
