  62
        -98.93872456
 C         -2.5876688524       -1.3609945566        0.1511941918
 C         -2.5198701524       -0.3132202429       -0.7960905216
 C         -3.5151541607        0.7665707819       -0.6551045491
 C         -4.4223461839        0.7109564796        0.3375070756
 C         -5.5687282119        1.6343124626        0.6934699341
 C         -5.6405287914        3.0480036924        0.1218210971
 C         -4.5347447895        3.9895163521        0.5977925793
 H         -4.6317547610        4.9318884668        0.0543672851
 H         -4.6891862541        4.1998231765        1.6590267674
 C         -3.1081618929        3.4693465676        0.4362781097
 H         -2.4256514129        4.2386910858        0.8078366047
 H         -2.9638470177        2.5868115467        1.0632745909
 C         -2.6894590711        3.1334866020       -0.9940696509
 H         -1.6140149202        2.9312194021       -0.9816774768
 H         -2.8581006120        3.9979408477       -1.6395076390
 C         -3.3842569923        1.9104864133       -1.6185234484
 H         -4.3522304759        2.1752536514       -2.0371957124
 H         -2.7574870834        1.5516742230       -2.4402581496
 H         -6.5945792399        3.4678036892        0.4520250968
 H         -5.6700958175        3.0155278386       -0.9632451216
 H         -5.5741750131        1.6902964729        1.7864963899
 H         -6.4814214040        1.0999450066        0.4075039300
 O         -4.4568356898       -0.3306016542        1.2194853848
 C         -3.5426015876       -1.3651642041        1.1688760411
 O         -3.6838320043       -2.2186109220        2.0669514964
 O         -1.6800342646       -0.2710293505       -1.7342637900
 C         -1.5844200568       -2.5042059806        0.1455430280
 C         -0.2364093773       -1.9296283617        0.5066955741
 C          0.0592008725       -1.6865149821        1.8454493984
 C          1.2510200449       -1.0877944952        2.2070688031
 C          2.1680491971       -0.7076197075        1.2418893371
 C          1.8747076976       -0.9306824922       -0.0959180430
 C          0.6876333360       -1.5559791633       -0.4556969023
 H          0.4678716542       -1.7118776248       -1.4997207302
 N          2.7927787351       -0.5346845701       -1.0841519999
 S          3.4282038642        1.0169323308       -0.9929835893
 O          2.5292274227        1.9315448620       -0.3279145907
 O          3.8035487845        1.3530890286       -2.3493736495
 C          4.9089950638        0.8030542867       -0.0251096479
 C          5.8176086190       -0.1566244708       -0.4267330500
 C          6.9774977630       -0.3305633213        0.3110888510
 C          7.2103121258        0.4557728426        1.4297096567
 C          6.2907420584        1.4180958845        1.8174074085
 C          5.1277021467        1.5961555975        1.0841565776
 H          4.3813235001        2.3274548934        1.3514597314
 H          6.4731338320        2.0291779569        2.6868328649
 H          8.1135583183        0.3178855200        2.0028234669
 H          7.6948551091       -1.0780010731        0.0127680239
 H          5.6006076260       -0.7445342045       -1.3027583845
 H          2.4756787658       -0.7298346923       -2.0233732089
 H          3.0930427986       -0.2268323731        1.5154612554
 H          1.4680731518       -0.9095670276        3.2493988176
 H         -0.6687637440       -1.9602331373        2.5969847635
 H         -1.8954536623       -3.1797800280        0.9532775668
 C         -1.6010429012       -3.2682612856       -1.1615315809
 C         -0.9382262233       -4.6102184678       -1.2330605556
 C         -2.4327574608       -4.5091812742       -1.2713993396
 H         -2.9406235615       -4.7069782007       -2.2034881545
 H         -2.9899628920       -4.8154903409       -0.3980893543
 H         -0.4181379356       -4.8818535499       -2.1389165819
 H         -0.4787673147       -4.9858408718       -0.3314072278
 H         -1.5527151025       -2.6295254931       -2.0345827065
