  62
        -98.94114394
 C          2.2324992042        1.0138091479        0.5874459438
 C          2.0700469718       -0.2263368494       -0.0757754826
 C          3.1780295148       -1.1777591306        0.0796776065
 C          4.2448633254       -0.8474647677        0.8304038767
 C          5.4405016224       -1.7195052268        1.1026633623
 C          6.5103109585       -1.6736713308        0.0031008961
 C          6.1407073734       -2.3942353816       -1.2940021052
 H          7.0529323220       -2.4712420280       -1.8888739297
 H          5.8149677889       -3.4092912269       -1.0648115723
 C          5.0665866407       -1.6836175111       -2.1294106623
 H          4.9750583628       -0.6460049721       -1.7998745124
 H          5.3759380507       -1.6596706130       -3.1768401097
 C          3.6872159860       -2.3409716645       -2.0800656123
 H          2.9975935178       -1.7373281154       -2.6761449808
 H          3.7384286999       -3.3347289521       -2.5306547461
 C          3.1003391837       -2.4741284089       -0.6686164413
 H          3.6147433981       -3.2631454221       -0.1204307694
 H          2.0443438904       -2.7403092788       -0.7607401825
 H          6.7435752026       -0.6288317646       -0.2143266419
 H          7.4126431604       -2.1384168099        0.4070089118
 H          5.8856835413       -1.3547549346        2.0307625134
 H          5.1162291326       -2.7494521752        1.2534089715
 O          4.3519732501        0.3498043469        1.4664122095
 C          3.3634580580        1.3128111870        1.3466254661
 O          3.5976326716        2.3723976916        1.9625378149
 O          1.0537697571       -0.5270261917       -0.7548810121
 C          1.1614923673        2.0810695904        0.4633814457
 C         -0.1864358041        1.5356807220        0.8671268361
 C         -0.2900436071        0.7470560277        2.0100317855
 C         -1.5080562636        0.2339970225        2.4114334571
 C         -2.6562419456        0.5007627859        1.6850396717
 C         -2.5671289445        1.2933028784        0.5501182001
 C         -1.3422722073        1.8106066535        0.1515215350
 H         -1.2978090794        2.4218552134       -0.7370843113
 N         -3.7496935823        1.5632215407       -0.1879503415
 S         -4.1767018741        0.3474996961       -1.2784103488
 O         -3.0559708635       -0.0301572222       -2.1114927611
 O         -5.3327295962        0.8605686448       -1.9814847234
 C         -4.6508584812       -1.0070028609       -0.2318266810
 C         -5.9128530639       -1.0019836035        0.3295459627
 C         -6.2756017396       -2.0461972360        1.1651876437
 C         -5.3740365168       -3.0680839499        1.4239340664
 C         -4.1111804889       -3.0576668626        0.8506933750
 C         -3.7414532280       -2.0170099937        0.0130415636
 H         -2.7685939320       -1.9653560309       -0.4505292753
 H         -3.4109184944       -3.8519900345        1.0539191595
 H         -5.6565776418       -3.8794639575        2.0760887557
 H         -7.2566863668       -2.0601027286        1.6118784702
 H         -6.5799140684       -0.1892157731        0.0945603057
 H         -3.6852820581        2.4265537799       -0.7124312173
 H         -3.6123796197        0.1146181404        1.9977154607
 H         -1.5661930271       -0.3772659416        3.2990158567
 H          0.6063284566        0.5355300889        2.5775506314
 H          1.4368670844        2.8749789799        1.1737777693
 C          1.1795740795        2.6575132292       -0.9386134426
 C          0.8176486689        4.0922677894       -1.1767716638
 C          2.2439568123        3.6487426559       -1.2972493577
 H          2.6886176455        3.5964334579       -2.2797925901
 H          2.9369179032        3.9311111789       -0.5179086483
 H          0.2842259457        4.3469463720       -2.0808652855
 H          0.5451335265        4.6893698057       -0.3195041668
 H          0.9014686659        1.9268261449       -1.6912236583
