  62
        -98.93248587
 C         -2.6090652812       -1.2335154096        0.2071250898
 C         -2.9982540723       -0.2426609485        1.1420180782
 C         -4.1908269814        0.5579804182        0.8189004605
 C         -4.8457959312        0.3228888573       -0.3332208327
 C         -6.1009587268        0.9412025327       -0.9128829809
 C         -6.6740761473        2.2319598638       -0.3338852561
 C         -5.8091436374        3.4721626622       -0.5575793911
 H         -5.8267523019        3.7195986592       -1.6219735646
 H         -6.2603659420        4.3058309089       -0.0151251385
 C         -4.3463503461        3.3413563076       -0.1405838375
 H         -3.8596393588        2.5715856984       -0.7430479851
 H         -3.8485476107        4.2882633863       -0.3665447207
 C         -4.1118819961        3.0355953522        1.3373694698
 H         -4.6202848913        3.7806151279        1.9525603991
 H         -3.0381686859        3.1224252077        1.5247536953
 C         -4.5494070639        1.6356257359        1.8011475807
 H         -5.6120072911        1.6088547299        2.0305914776
 H         -4.0088256138        1.4011833534        2.7228797005
 H         -6.8945321913        2.1053135497        0.7219620408
 H         -7.6294508719        2.4016013320       -0.8379807286
 H         -5.8963011980        1.0864242799       -1.9783737605
 H         -6.8697099483        0.1629055098       -0.8513188497
 O         -4.4378609643       -0.6461261348       -1.2018583121
 C         -3.3167158002       -1.4340690610       -0.9772371296
 O         -3.0872622000       -2.2441277410       -1.8926449147
 O         -2.3761852288       -0.0434244811        2.2208477692
 C         -1.3764937081       -2.0478881152        0.5559932609
 C         -0.1365373058       -1.3888681444        0.0075556727
 C         -0.0287540375       -1.0614579301       -1.3407819520
 C          1.1163065575       -0.4546072599       -1.8231794473
 C          2.1693445971       -0.1537261539       -0.9763124259
 C          2.0713119610       -0.4726818627        0.3710025712
 C          0.9226779535       -1.0907247402        0.8514438954
 H          0.8444510451       -1.3267629440        1.9042657125
 N          3.1215361416       -0.1474379475        1.2412704253
 S          4.7042107361       -0.4597370635        0.7861685344
 O          4.7835313572       -1.5973931424       -0.0998476138
 O          5.4367054099       -0.5597024540        2.0291924572
 C          5.2058306701        1.0200874480       -0.0670819092
 C          5.7546744031        0.9327345218       -1.3313759896
 C          6.1493555440        2.0966980122       -1.9726497766
 C          5.9900096001        3.3205107163       -1.3410300934
 C          5.4396906983        3.3908195835       -0.0697707322
 C          5.0444206554        2.2310277538        0.5771987637
 H          4.6154746700        2.2440205377        1.5653131565
 H          5.3170312160        4.3444279304        0.4180938576
 H          6.2961787204        4.2251118797       -1.8423830804
 H          6.5777232297        2.0441104959       -2.9607011984
 H          5.8543049401       -0.0399474964       -1.7865422877
 H          2.9555661183       -0.3957266228        2.2053605358
 H          3.0608953196        0.3220529328       -1.3504905135
 H          1.1891246591       -0.2083813523       -2.8717683867
 H         -0.8508510705       -1.2907095978       -2.0022903315
 H         -1.3145722186       -1.9982410360        1.6550156780
 C         -1.4930427805       -3.5179212281        0.1797174546
 C         -0.6838184848       -4.1736430110       -0.8944023914
 C         -0.3930723568       -4.4714044600        0.5440475981
 H         -0.6550413387       -5.4408682082        0.9398977899
 H          0.5092765362       -4.0517359442        0.9643439848
 H         -1.1711943588       -4.9257819234       -1.4955789297
 H          0.0264194372       -3.5748255471       -1.4421060841
 H         -2.5080287614       -3.8832909148        0.2988118592
