  62
        -98.94661831
 C         -1.1594218667       -1.3569737115        0.2533272799
 C         -1.3674850390       -0.3310996767       -0.7002272900
 C         -2.3421340396        0.7045861420       -0.3257192815
 C         -2.9019245137        0.6810202887        0.8964897329
 C         -3.9490910479        1.6397255392        1.3824528180
 C         -5.3599615537        1.1060834126        1.0954788559
 C         -5.5584095700        0.6250252107       -0.3421922206
 H         -4.9322852945       -0.2533979382       -0.5146640911
 H         -6.5972445883        0.3007829019       -0.4350829955
 C         -5.2554093748        1.6809683583       -1.4145880750
 H         -6.0507520739        1.6572905658       -2.1625901552
 H         -5.2624970825        2.6756414171       -0.9675029804
 C         -3.9363525897        1.4693775462       -2.1606287357
 H         -3.9279573528        2.1330586793       -3.0293521768
 H         -3.8877680846        0.4432045164       -2.5336197692
 C         -2.6630722459        1.7529418271       -1.3531116047
 H         -1.8193354093        1.7602484770       -2.0487653910
 H         -2.7366173775        2.7385498359       -0.8911667170
 H         -5.5565186271        0.2666506924        1.7664832366
 H         -6.0802529868        1.8950133292        1.3196115191
 H         -3.8316686416        1.7636493927        2.4603726569
 H         -3.8122623859        2.6032708576        0.8954882588
 O         -2.6036817675       -0.2631100350        1.8234849566
 C         -1.7600917458       -1.3142922284        1.5167199505
 O         -1.6183382467       -2.1400879349        2.4402735177
 H          1.2414583044       -0.8282376906       -1.4029596307
 C          1.8057660389       -1.2986367710       -0.6112216662
 C          1.1804676218       -2.2277711268        0.2083143249
 C          1.9138259663       -2.8032603998        1.2390198990
 C          3.2394399515       -2.4581308273        1.4418915735
 C          3.8573988028       -1.5255211736        0.6273266284
 C          3.1275960188       -0.9397595910       -0.3982249092
 N          3.7323968895        0.0617516498       -1.1964898172
 S          3.9495804439        1.5208463769       -0.4027459004
 O          4.3803997202        2.4631252443       -1.4096211083
 O          4.8499985969        1.3099644498        0.7018272014
 C          2.3371019335        1.9807371713        0.2103945087
 C          1.8509989653        1.3661307210        1.3475260474
 C          0.5846232797        1.7006647184        1.7986409213
 C         -0.1652210816        2.6457794829        1.1164894208
 C          0.3352307511        3.2501934278       -0.0259323527
 C          1.5940973790        2.9083639633       -0.4910075400
 H          2.0210367679        3.3539168001       -1.3752629929
 H         -0.2519828237        3.9824417689       -0.5561025068
 H         -1.1448784749        2.9099119098        1.4818079868
 H          0.1846449937        1.2174389110        2.6768582722
 H          2.4645334570        0.6477922504        1.8669013697
 H          3.2160865741        0.2363499697       -2.0487829036
 H          4.8788775729       -1.2217057563        0.7879331380
 H          3.7957673925       -2.9150653974        2.2462575158
 H          1.4320883721       -3.5129617877        1.8958703185
 C         -0.2744768941       -2.5702720169        0.0028871025
 H         -0.5558838476       -3.3036178093        0.7702096260
 C         -0.5033683966       -3.1938578598       -1.3606225936
 C         -0.1169797697       -4.6244436427       -1.5784625647
 C         -1.5642430053       -4.2390571153       -1.5193603802
 H         -2.1416014696       -4.2529874762       -2.4316743694
 H         -2.1303114319       -4.5155301819       -0.6414390228
 H          0.3022152520       -4.9055141036       -2.5323262323
 H          0.2976771906       -5.1641417483       -0.7404658408
 H         -0.3618990585       -2.5032987589       -2.1812404949
 O         -0.7912334806       -0.2631719860       -1.8193650373
