  62
        -98.94109158
 C         -1.1058527394       -1.2460251834       -0.2166899840
 C         -2.0075118817       -0.9250387552        0.8302652414
 C         -2.8947298599        0.2324279708        0.6260860232
 C         -2.8165582841        0.9230386100       -0.5262993767
 C         -3.5783571568        2.1357378049       -1.0201969826
 C         -4.8214883542        2.6294693254       -0.2847624816
 C         -6.0315533359        1.7005371082       -0.3826035627
 H         -6.8181972545        2.0924475186        0.2658190271
 H         -6.4054026224        1.7254206905       -1.4094189143
 C         -5.7731114677        0.2393802965       -0.0234894266
 H         -6.7097437615       -0.3084297552       -0.1586827354
 H         -5.0486598037       -0.1877233444       -0.7198911152
 C         -5.2933927751       -0.0072748338        1.4053004133
 H         -5.2953689619       -1.0879307991        1.5716097519
 H         -5.9959151714        0.4398753563        2.1114092516
 C         -3.8800205662        0.5080830008        1.7253528276
 H         -3.5167388677       -0.0317617995        2.6044706529
 H         -3.8948760287        1.5662463969        1.9748911510
 H         -5.1000594253        3.5804585183       -0.7469117857
 H         -4.5868629782        2.8428173949        0.7539278685
 H         -2.8515036996        2.9541331546       -1.0551526132
 H         -3.8428207580        1.9179331812       -2.0599629405
 O         -1.9081652315        0.6002306321       -1.4899479670
 C         -1.0379740172       -0.4688616314       -1.3712283108
 O         -0.2824871189       -0.5977000549       -2.3564172219
 O         -2.0741128977       -1.5877526599        1.8989847476
 C         -0.2310728499       -2.4722291036       -0.0100235809
 C          1.1571109897       -2.0788764667        0.4315284942
 C          1.6306917382       -2.4109830240        1.6952365788
 C          2.8939808748       -2.0175695362        2.1033436633
 C          3.7059119510       -1.2749310171        1.2642140379
 C          3.2357016905       -0.9327497116        0.0036937357
 C          1.9786366800       -1.3430340384       -0.4107320537
 H          1.6175178286       -1.0596549049       -1.3881731612
 N          4.0302796583       -0.1140512981       -0.8365513624
 S          4.1411790824        1.4681092925       -0.2907493125
 O          4.6135200929        2.2464079944       -1.4128555508
 O          4.9658176279        1.4888017792        0.8905018814
 C          2.4684588586        1.9275159660        0.1290337521
 C          1.9962709506        1.6675269280        1.4001150797
 C          0.6755598163        1.9618348856        1.6958534349
 C         -0.1437489911        2.5146225462        0.7241926658
 C          0.3452554904        2.7688337876       -0.5475825841
 C          1.6614078489        2.4641178264       -0.8531282521
 H          2.0761500623        2.6447196660       -1.8321230086
 H         -0.2944532698        3.1898017530       -1.3069834044
 H         -1.1709730300        2.7427016966        0.9620703817
 H          0.2857889921        1.7549088035        2.6796455550
 H          2.6656433464        1.2477078259        2.1329030131
 H          3.6873441297       -0.1002791783       -1.7881596068
 H          4.6806442339       -0.9328304190        1.5721185374
 H          3.2474511263       -2.2852941956        3.0873824159
 H          0.9934266319       -2.9673983662        2.3667976959
 H         -0.7007406911       -3.0224012374        0.8161022894
 C         -0.1803472869       -3.3804045996       -1.2233627499
 C          0.2084985981       -4.8156348129       -1.0406152975
 C         -1.2081228665       -4.4593705282       -1.3761621117
 H         -1.5780003173       -4.6814966211       -2.3659433567
 H         -1.9548674708       -4.5526614863       -0.6011005484
 H          0.8149733066       -5.2853563518       -1.7996618966
 H          0.4218487845       -5.1522080019       -0.0374238847
 H          0.1495846581       -2.8802074526       -2.1245285488
