  62
        -98.94818555
 C          1.5648253932        0.8373447332       -0.7441811879
 C          1.4881779139        1.7079283911        0.3692409925
 C          0.4663669518        2.7602332696        0.2846942420
 C         -0.3697213280        2.7992609426       -0.7680408187
 C         -1.4365249995        3.8313490402       -1.0190167692
 C         -2.7546720549        3.5812025521       -0.2747866505
 C         -2.7171252521        3.8561920322        1.2286643597
 H         -2.3013068231        4.8487288208        1.4067472906
 H         -3.7519689727        3.8684907802        1.5771804288
 C         -1.9395024610        2.8168167981        2.0475430199
 H         -2.5139927762        2.5519256056        2.9388982192
 H         -1.8220918810        1.8932044109        1.4760843795
 C         -0.5610844010        3.2742071169        2.5241204214
 H         -0.0865333037        2.4295521666        3.0305096414
 H         -0.6729515687        4.0850729842        3.2485816217
 C          0.3775052800        3.7484893372        1.4082824625
 H          0.0511166199        4.7189963505        1.0329155726
 H          1.3795117974        3.8556397081        1.8321220034
 H         -3.5091510182        4.2328442165       -0.7220962408
 H         -3.0677154030        2.5478678856       -0.4427324813
 H         -1.0550623705        4.8187741281       -0.7560571683
 H         -1.6376383681        3.8124352165       -2.0924332593
 O         -0.3152849280        1.8920374742       -1.7796924691
 C          0.6478386429        0.8959095545       -1.7932677587
 O          0.5865399898        0.1365768837       -2.7816429591
 H          0.2574732591       -1.3646688045       -0.2875569502
 C          1.0018947662       -1.7307237192        0.4048120303
 C          2.3095913767       -1.2747203816        0.2962339017
 C          3.2604071563       -1.7687757820        1.1789645323
 C          2.8962294645       -2.6773824702        2.1585668616
 C          1.5850445932       -3.0972624178        2.2878096602
 C          0.6280848739       -2.6146494875        1.4019640595
 N         -0.7154296978       -3.0133860658        1.4816047981
 S         -1.9055718216       -1.8685022207        1.1961719676
 O         -1.4930293097       -0.5502536623        1.6146256486
 O         -3.0808912410       -2.4026639258        1.8549303062
 C         -2.1750493792       -1.9071110255       -0.5613447627
 C         -2.3716502737       -0.7153758493       -1.2283860923
 C         -2.6145977320       -0.7366111538       -2.5914897825
 C         -2.6608676559       -1.9494029144       -3.2601133331
 C         -2.4681297714       -3.1398881807       -2.5755419436
 C         -2.2250346730       -3.1237685863       -1.2116709733
 H         -2.0661178545       -4.0276931332       -0.6475522436
 H         -2.5022734512       -4.0798335211       -3.1026232641
 H         -2.8428267746       -1.9635866877       -4.3231079333
 H         -2.7490708310        0.1916350437       -3.1231930422
 H         -2.3070820836        0.2070234918       -0.6713754618
 H         -0.9417441962       -3.6006972710        2.2713587976
 H          1.3001860971       -3.7881053942        3.0667563995
 H          3.6430073718       -3.0524795848        2.8419603120
 H          4.2830525694       -1.4367419105        1.1076464434
 C          2.6045655866       -0.2696264949       -0.7909770275
 H          2.4619452480       -0.7740715674       -1.7583507579
 C          4.0062211846        0.2985863846       -0.7379679860
 C          5.1438840309       -0.4497223911       -1.3634433253
 C          4.6301045051        0.8041059484       -2.0029166651
 H          5.2374610863        1.6955000711       -1.9573838441
 H          4.0514449877        0.7164495066       -2.9111325457
 H          6.1091160798       -0.4184141411       -0.8809873344
 H          4.9197879311       -1.3904186556       -1.8431631060
 H          4.1964169120        0.8574746682        0.1706446945
 O          2.2479313345        1.6346392466        1.3704464631
