  62
        -98.94849009
 C         -2.3449864962       -0.6600736197        0.1718880977
 C         -1.5427511057       -0.0400657632       -0.8155019457
 C         -1.7131666040        1.4118705399       -0.9698534802
 C         -2.5830081605        2.0629842559       -0.1781333628
 C         -2.8591273095        3.5374590689       -0.2293161056
 C         -1.9662105574        4.3197478516        0.7421395887
 C         -0.4797551037        3.9789615410        0.6331493532
 H         -0.3115582017        2.9561568543        0.9796750129
 H          0.0547702722        4.6353805115        1.3243024742
 C          0.1085797087        4.1341936576       -0.7761512547
 H          1.0756916347        4.6349522653       -0.6939872450
 H         -0.5375679137        4.7703080514       -1.3831466064
 C          0.3547620467        2.8082483527       -1.4985557601
 H          0.8796182828        2.1299813358       -0.8211985637
 H          1.0116070923        2.9987716745       -2.3518543562
 C         -0.8952761901        2.0944292974       -2.0300314827
 H         -0.5637730320        1.3032871698       -2.7088885875
 H         -1.5087954247        2.7987043858       -2.5966247710
 H         -2.2911203269        4.1053110030        1.7630616659
 H         -2.1104361300        5.3863307821        0.5568873896
 H         -3.9035625041        3.6975740567        0.0456730430
 H         -2.7034483988        3.8926830039       -1.2463778108
 O         -3.3090367656        1.4424485173        0.7876754805
 C         -3.1858256557        0.0802038602        1.0051552506
 O         -3.8731953191       -0.3511977526        1.9538408037
 O         -0.7324640393       -0.6622086872       -1.5511108016
 C         -2.2512469696       -2.1518009484        0.4493426290
 C         -0.8019611863       -2.5739351645        0.4542379936
 C         -0.2930931053       -3.6322137536       -0.2873004797
 C          1.0566682577       -3.9373702731       -0.2390889433
 C          1.9285431304       -3.1803556421        0.5213046577
 C          1.4280015946       -2.1183656179        1.2659092813
 C          0.0706708894       -1.8477120472        1.2560985911
 H         -0.3048704320       -1.0209480399        1.8424481646
 N          2.2751022002       -1.2849033754        2.0282641902
 S          2.3900515750        0.3138532568        1.5320606370
 O          3.3044356178        0.9347962935        2.4671555003
 O          1.0759532085        0.8945934703        1.4460124288
 C          3.1682803631        0.2266208055       -0.0719825270
 C          4.5142102904        0.5270823457       -0.1642622217
 C          5.1480827181        0.4073595784       -1.3898994361
 C          4.4299263476       -0.0190837175       -2.4972116867
 C          3.0821002589       -0.3216341086       -2.3857767895
 C          2.4381780678       -0.2012800490       -1.1630022386
 H          1.3870226706       -0.4264796759       -1.0647087710
 H          2.5162757780       -0.6542421183       -3.2411813831
 H          4.9223867120       -0.1157770865       -3.4520281672
 H          6.1962412683        0.6442562992       -1.4770945530
 H          5.0289405846        0.8561953942        0.7240688961
 H          3.2082525558       -1.6565115590        2.1461969197
 H          2.9859173609       -3.3989684529        0.5347519539
 H          1.4376128684       -4.7626928568       -0.8210092415
 H         -0.9473008850       -4.2062756437       -0.9224588301
 H         -2.6388674746       -2.2741630974        1.4749920656
 C         -3.1283445202       -3.0079608289       -0.4531273789
 C         -4.3503865828       -2.4409144300       -1.1103018075
 C         -3.1614554649       -2.8187506323       -1.9389340529
 H         -3.2345886638       -3.6947171647       -2.5666721417
 H         -2.5512465353       -2.0316997675       -2.3521379538
 H         -5.2348553819       -3.0581291506       -1.1622913431
 H         -4.5602530453       -1.3916923102       -0.9592848345
 H         -3.2151007019       -4.0262996075       -0.0869444624
