  62
        -98.93800113
 C          1.2226595939       -1.0120963644       -0.1605634355
 C          1.7333013119        0.0411227066       -0.9569671304
 C          2.8198284576        0.8503738910       -0.3798481213
 C          3.2193030721        0.6097557785        0.8823253819
 C          4.2586168736        1.2936095159        1.7460663321
 C          5.2987705833        2.2246857869        1.1280517270
 C          6.3080239614        1.5386648705        0.2081278043
 H          6.9493526124        0.8944562408        0.8148069099
 H          6.9388348393        2.3096686528       -0.2396178246
 C          5.7094745745        0.6795415506       -0.9027926588
 H          5.1663669160       -0.1599123649       -0.4637050289
 H          6.5359568374        0.2600714384       -1.4827603803
 C          4.7869846943        1.4151285353       -1.8731261187
 H          4.5713977310        0.7345775108       -2.7011511911
 H          5.3027893727        2.2859836738       -2.2819465310
 C          3.4386222251        1.8729492893       -1.2885750524
 H          2.7380364125        2.0096860619       -2.1176817042
 H          3.5290497657        2.8307099270       -0.7808040142
 H          5.8558184122        2.6628650296        1.9608055351
 H          4.8092115415        3.0455106039        0.6119858707
 H          4.7720943929        0.4905017142        2.2846507286
 H          3.6934353280        1.8561949567        2.4979501179
 O          2.6331377029       -0.3569726869        1.6466874085
 C          1.6308299937       -1.1846625157        1.1612470026
 O          1.2075174593       -2.0037854057        1.9977214236
 O          1.2911451289        0.3039499724       -2.1080685255
 C          0.1118208941       -1.8645857163       -0.7442373550
 C         -1.0669687767       -1.9018365911        0.1961329132
 C         -1.7384155641       -3.0594600221        0.5656863681
 C         -2.8326675413       -2.9908574059        1.4114383153
 C         -3.2949090298       -1.7764048361        1.8839136037
 C         -2.6268008211       -0.6117481652        1.5218644843
 C         -1.5229111949       -0.6866397109        0.6903863426
 H         -0.9884970810        0.2185184541        0.4454063686
 N         -3.0556029096        0.6451699521        1.9732215978
 S         -2.8805184955        1.9792093312        0.9834314321
 O         -1.5104056543        2.4296317357        0.9783455110
 O         -3.8506667323        2.9270656463        1.4899106039
 C         -3.3739249817        1.4180209467       -0.6374513159
 C         -2.4521534501        1.3074838761       -1.6580058180
 C         -2.8677841052        0.8159399505       -2.8858151506
 C         -4.1906948608        0.4477767976       -3.0725287147
 C         -5.1085499849        0.5763193377       -2.0408170500
 C         -4.6980448087        1.0628162180       -0.8110132461
 H         -5.3840216062        1.1856173927        0.0111433888
 H         -6.1384660453        0.2953532494       -2.1903807195
 H         -4.5069967379        0.0612864627       -4.0284729439
 H         -2.1474325616        0.7179418558       -3.6825211457
 H         -1.4264437187        1.5958826242       -1.4867460625
 H         -3.9299184950        0.6485152831        2.4767586340
 H         -4.1519711117       -1.7267508953        2.5376739710
 H         -3.3388132245       -3.8990121078        1.7015136495
 H         -1.3947794270       -4.0173169530        0.2118666964
 H         -0.2080665654       -1.3055371529       -1.6409858883
 C          0.5526749417       -3.2372221848       -1.2304150773
 C          1.9888492671       -3.5237154371       -1.5497522324
 C          1.3386795744       -4.1792575229       -0.3702414597
 H          1.1167248091       -5.2347860525       -0.4310150066
 H          1.6063090285       -3.8434840451        0.6189474909
 H          2.2119430044       -4.1249200169       -2.4185035801
 H          2.7094117305       -2.7400541161       -1.3638315369
 H         -0.1794671960       -3.6853753979       -1.8949590797
