  62
        -98.94106552
 C         -1.7316736608       -1.7627827586        0.1011565586
 C         -2.3413606485       -0.9166837561        1.0641824533
 C         -3.2732776386        0.0960135770        0.5533379170
 C         -3.5254410613        0.1456959045       -0.7667932253
 C         -4.4549062742        1.1213550635       -1.4279852462
 C         -3.7121747264        2.3803977510       -1.8940507901
 C         -2.8023733895        2.9910363890       -0.8282490880
 H         -1.9850713631        2.2974079637       -0.6169818745
 H         -2.3624559581        3.8907702132       -1.2638746749
 C         -3.5094303980        3.3541310053        0.4849688041
 H         -3.1707136283        4.3426319854        0.8017246197
 H         -4.5855239794        3.4196769870        0.3201538235
 C         -3.2317827195        2.3949918340        1.6444701797
 H         -2.1545205443        2.2381900608        1.7414893346
 H         -3.5813708095        2.8676473838        2.5659529871
 C         -3.9090155113        1.0215271249        1.5514220938
 H         -4.9734068420        1.1467055439        1.3422390459
 H         -3.8052031812        0.5301070627        2.5230836600
 H         -3.0979935377        2.1201575381       -2.7594220029
 H         -4.4508495006        3.1182631674       -2.2126945659
 H         -4.9036740468        0.6332207670       -2.2950068006
 H         -5.2437012250        1.3903554623       -0.7279692597
 O         -2.9228598399       -0.6759371557       -1.6616253168
 C         -1.9842615505       -1.6240955586       -1.2640956142
 O         -1.4768331476       -2.2460876113       -2.2157017243
 O         -2.1209625568       -1.0171381235        2.3003815793
 C         -0.7763676648       -2.8121569838        0.6411914009
 C          0.6259914856       -2.2703270690        0.7531206684
 C          1.3824993243       -2.4802115280        1.8996591437
 C          2.6742062902       -1.9912165471        1.9900296542
 C          3.2325040106       -1.2781436102        0.9447414769
 C          2.4767238781       -1.0436634715       -0.1977607193
 C          1.1842932415       -1.5424819699       -0.2886318671
 H          0.6053268237       -1.3755778993       -1.1862844545
 N          3.0284318582       -0.3136887356       -1.2663128384
 S          3.7448622310        1.1677779256       -0.9623294926
 O          3.8785663106        1.7941731292       -2.2569028907
 O          4.9646994953        0.9587057131       -0.2242488624
 C          2.5774953765        2.0714853178        0.0379049727
 C          1.6285367531        2.8465382274       -0.5989283940
 C          0.6965235210        3.5292514961        0.1653566060
 C          0.7154898165        3.4095307941        1.5464928113
 C          1.6711863415        2.6234160229        2.1709391183
 C          2.6167582630        1.9511151726        1.4128741235
 H          3.3849401711        1.3474750315        1.8661690951
 H          1.6839616722        2.5323361797        3.2450948124
 H         -0.0165390855        3.9359543074        2.1387282945
 H         -0.0418353244        4.1493816381       -0.3161764305
 H          1.6484666876        2.9150720177       -1.6749805616
 H          2.4146117545       -0.2491375529       -2.0654761217
 H          4.2394516062       -0.8965790805        0.9946692100
 H          3.2542771942       -2.1685474195        2.8827343318
 H          0.9482592880       -3.0220410478        2.7267479253
 H         -1.1297771996       -3.0110408983        1.6656772906
 C         -0.8321301230       -4.1298967285       -0.1189088447
 C          0.2495963829       -4.5990259733       -1.0401185903
 C          0.0533753290       -5.2720694047        0.2831438803
 H         -0.3639596856       -6.2673168367        0.3022799454
 H          0.7910982218       -5.0857913235        1.0488534974
 H         -0.0492003596       -5.1136774048       -1.9404615353
 H          1.1176257534       -3.9718180917       -1.1708000433
 H         -1.8471081597       -4.3822434233       -0.4093060606
