  62
        -98.94416112
 C         -2.1971134188       -0.7686526893       -0.0557705791
 C         -2.8942652355       -0.0890773768        0.9707220490
 C         -3.6922818217        1.0662479057        0.5452735465
 C         -3.6875067095        1.4403190622       -0.7474231235
 C         -4.4307401855        2.6105100466       -1.3325954494
 C         -5.8952292764        2.3084725162       -1.6789431448
 C         -6.8329935967        2.1707533075       -0.4789063293
 H         -6.7246331940        3.0421812244        0.1676605239
 H         -7.8532489639        2.1785415357       -0.8674898395
 C         -6.6281796666        0.8896772513        0.3417076629
 H         -7.5980010866        0.4345820274        0.5548137321
 H         -6.0580360167        0.1669490468       -0.2465320028
 C         -5.9240063329        1.1008738644        1.6820546783
 H         -5.7996344091        0.1263564946        2.1612705440
 H         -6.5487336961        1.7177219896        2.3318673930
 C         -4.5401288113        1.7543851492        1.5722046810
 H         -4.6417031785        2.8134734715        1.3357241487
 H         -4.0371414019        1.6580274556        2.5378560430
 H         -6.2575147078        3.1283394709       -2.3033469095
 H         -5.9311589684        1.3946265779       -2.2763199965
 H         -4.3848613183        3.4558789862       -0.6453460846
 H         -3.9081378993        2.8809190235       -2.2526270300
 O         -2.9650324324        0.7881267480       -1.6965753158
 C         -2.2177957837       -0.3388384477       -1.3829502336
 O         -1.6260734011       -0.8478297068       -2.3524257487
 H          0.0672026759        0.1730376574        0.8472230430
 C          0.6684762568       -0.5685911390        0.3343472471
 C          0.0798366969       -1.7697456458       -0.0431367886
 C          0.8676127874       -2.7177473688       -0.6821506762
 C          2.1994990719       -2.4547324420       -0.9534317738
 C          2.7745264777       -1.2505541045       -0.5931624619
 C          2.0003709853       -0.3003698391        0.0605359906
 N          2.5751949480        0.9306065025        0.4268243505
 S          3.9860845758        0.8955078377        1.3394172106
 O          4.0594249901       -0.2975358999        2.1508826575
 O          4.0103813846        2.1572205634        2.0469877613
 C          5.2847070619        0.8872683606        0.1218643666
 C          5.3328575572        1.9280584276       -0.7847342972
 C          6.3392333555        1.9391865269       -1.7371994824
 C          7.2759851211        0.9166111929       -1.7651951100
 C          7.2161972922       -0.1190854444       -0.8453762839
 C          6.2115685461       -0.1366113282        0.1097064534
 H          6.1219120178       -0.9232692203        0.8417888372
 H          7.9457374573       -0.9125519746       -0.8687244535
 H          8.0574670518        0.9274832832       -2.5084520885
 H          6.3890451881        2.7428933564       -2.4540831907
 H          4.5879113833        2.7041230130       -0.7263142398
 H          1.9144490234        1.5792960382        0.8298870398
 H          3.8086778654       -1.0398100646       -0.8108589219
 H          2.7973481692       -3.1982716747       -1.4579032284
 H          0.4382704500       -3.6623963893       -0.9724363732
 C         -1.3733351187       -1.9923730460        0.2985610221
 H         -1.4507842834       -2.0895062957        1.3925194656
 C         -1.9659440850       -3.2300936194       -0.3421773011
 C         -1.8256419360       -4.5670382486        0.3202554817
 C         -3.1551010467       -3.8762797179        0.3009947110
 H         -3.9347039822       -4.2701990544       -0.3336097559
 H         -3.5198039580       -3.4396858158        1.2195962649
 H         -1.6947915872       -5.4398108933       -0.3014689943
 H         -1.2898329160       -4.6072328840        1.2566636524
 H         -1.9447883744       -3.1871750695       -1.4253101067
 O         -2.8444961252       -0.4261967851        2.1853835717
