  62
        -98.94140975
 C         -2.3345340738       -1.1066468607       -0.5203120620
 C         -3.6496600263       -1.0026973595       -0.0012276759
 C         -4.4144540474        0.1769330943       -0.4177165032
 C         -3.8521096786        1.0787320449       -1.2427661542
 C         -4.5077358114        2.3266521154       -1.7688353927
 C         -4.4329316028        3.5218322666       -0.8087124153
 C         -5.3408693833        3.4285339683        0.4182672895
 H         -5.3531708611        4.4164713725        0.8828882962
 H         -6.3595477056        3.2059302279        0.0992030614
 C         -4.8899655323        2.3985007711        1.4634907499
 H         -4.9411237680        2.8442014788        2.4595550131
 H         -3.8443753087        2.1332971455        1.2875847753
 C         -5.7274565088        1.1199219994        1.4959676640
 H         -6.7476054590        1.3581994211        1.8049076804
 H         -5.2971127500        0.4484766964        2.2433116104
 C         -5.7844310623        0.3678797498        0.1599033960
 H         -6.2093788121       -0.6221716873        0.3420290572
 H         -6.4236802307        0.8996915199       -0.5442726464
 H         -4.7140968993        4.4127702512       -1.3750222470
 H         -3.3963151040        3.6467039127       -0.4862637616
 H         -5.5499215146        2.1186062931       -2.0124304958
 H         -3.9806688738        2.5906795169       -2.6881293873
 O         -2.5880912664        0.9419570283       -1.7227238633
 C         -1.7909831242       -0.1356236070       -1.3614298544
 O         -0.6509213102       -0.1101638666       -1.8644636135
 O         -4.1604554427       -1.8585032717        0.7689920231
 C         -1.4869941208       -2.2923926100       -0.0884738165
 C         -0.3840515206       -1.7704461156        0.7984718783
 C         -0.6754579176       -1.4538662365        2.1228025243
 C          0.2872536070       -0.8980735021        2.9437048225
 C          1.5589015632       -0.6397369290        2.4612371922
 C          1.8556674047       -0.9427251991        1.1397797456
 C          0.8911542832       -1.5159899204        0.3203011290
 H          1.1296646930       -1.7308071388       -0.7092363709
 N          3.1461088610       -0.6852900664        0.6331799107
 S          3.8112529580        0.8275979488        0.9882008709
 O          4.3360827176        0.7872945425        2.3310728856
 O          2.8545261340        1.8785632872        0.7193527429
 C          5.1554178366        0.8858654819       -0.1796392448
 C          6.3707228510        0.3290883117        0.1705203077
 C          7.4058715133        0.3486313577       -0.7506048868
 C          7.2091984928        0.9201550212       -1.9989107168
 C          5.9836273631        1.4752793242       -2.3356415630
 C          4.9433829701        1.4576490561       -1.4197902676
 H          3.9758911784        1.8829084024       -1.6368494863
 H          5.8332985395        1.9204284380       -3.3060890067
 H          8.0161320610        0.9357167423       -2.7143621800
 H          8.3607416512       -0.0800860408       -0.4927074761
 H          6.4782240871       -0.0954635438        1.1548331614
 H          3.1825612844       -0.8484554940       -0.3648399066
 H          2.3147829473       -0.1899282405        3.0844007220
 H          0.0471326561       -0.6569911343        3.9686168538
 H         -1.6746204033       -1.6349743912        2.4946981590
 H         -2.1520413205       -2.9159236738        0.5241376573
 C         -1.0011251638       -3.1088041018       -1.2668193477
 C         -0.4485643059       -4.4814803599       -1.0289248704
 C         -1.7816368420       -4.3147234902       -1.6923670443
 H         -1.8638820006       -4.5274541543       -2.7476860294
 H         -2.6691792260       -4.5598702767       -1.1278440302
 H          0.3857999189       -4.8134293048       -1.6274930800
 H         -0.4296067541       -4.8386389194       -0.0104445402
 H         -0.5549870692       -2.5087316217       -2.0505240349
