  62
        -98.93970983
 C         -1.6584738822       -1.2525627077        0.2946470326
 C         -1.6552324770        0.1362135558        0.5875911650
 C         -2.6697305019        0.9493553408       -0.0937754961
 C         -3.4991715903        0.3579629808       -0.9724809377
 C         -4.6095553708        1.0520508033       -1.7057757619
 C         -5.9272155313        0.9738762708       -0.9222796268
 C         -5.7969056625        1.3829616208        0.5448427730
 H         -6.7926944000        1.3222892490        0.9893506602
 H         -5.1691493211        0.6545388329        1.0632594833
 C         -5.2236863006        2.7903731718        0.7618605911
 H         -5.8259850054        3.3010766798        1.5162158249
 H         -5.3022213051        3.3683483978       -0.1596221440
 C         -3.7758182358        2.8148749050        1.2552249117
 H         -3.5472301243        3.8321816921        1.5837406551
 H         -3.6752062433        2.1603775827        2.1245900644
 C         -2.7100235806        2.4169232487        0.2262270516
 H         -2.8402159217        3.0065820061       -0.6836730040
 H         -1.7321342847        2.6490458332        0.6567672273
 H         -6.2927838638       -0.0549861134       -0.9603729084
 H         -6.6613395573        1.6128626293       -1.4165688566
 H         -4.3347898971        2.0920778300       -1.8709536106
 H         -4.7427079079        0.5625428327       -2.6720475594
 O         -3.4435888227       -0.9651268616       -1.2630398244
 C         -2.5241690365       -1.8083103502       -0.6478035925
 O         -2.5976008843       -2.9896960787       -1.0311752835
 H          1.7639251541       -1.0358420925        1.7576717417
 C          1.7956834127       -1.4196094223        0.7471919082
 C          0.6655282996       -2.0157827709        0.2091528325
 C          0.7100669063       -2.4714470359       -1.1055190007
 C          1.8677160248       -2.3459104199       -1.8514003036
 C          2.9966003735       -1.7535579262       -1.3100542373
 C          2.9537709462       -1.2771143150       -0.0068675073
 N          4.0921569059       -0.6476853906        0.5396237355
 S          4.5973329325        0.7800634385       -0.1762236257
 O          4.9308269870        0.5183174531       -1.5526960616
 O          5.6666232662        1.2713992932        0.6617806205
 C          3.1988825545        1.8838042438       -0.0822633894
 C          3.1710208657        2.8406131833        0.9123909710
 C          2.0728754372        3.6796500051        1.0048207190
 C          1.0215898829        3.5394547561        0.1126745805
 C          1.0579734013        2.5644095696       -0.8715698050
 C          2.1568985342        1.7272582347       -0.9746773036
 H          2.2192134982        0.9638604246       -1.7336626227
 H          0.2312548354        2.4473378578       -1.5544806339
 H          0.1667870574        4.1935316602        0.1845893734
 H          2.0370773380        4.4359009117        1.7725436847
 H          4.0121212382        2.9163032164        1.5829361632
 H          4.0234913445       -0.5038269695        1.5378304124
 H          3.8981607578       -1.6280652367       -1.8871522147
 H          1.8920759467       -2.7091479716       -2.8679712517
 H         -0.1766703590       -2.9149425498       -1.5341262906
 C         -0.6083764228       -2.0854353473        1.0104111754
 H         -0.4289720985       -1.5541621813        1.9583134285
 C         -1.0568909045       -3.4971784123        1.3551559062
 C         -0.3732486792       -4.7308695396        0.8530032032
 C         -0.2232791595       -4.3273881371        2.2868638162
 H         -0.7182714932       -4.9108419667        3.0482998738
 H          0.7300111694       -3.9212926811        2.5915202234
 H         -0.9932340331       -5.5813093569        0.6132855441
 H          0.4805802881       -4.6194765362        0.2033786944
 H         -2.1320624063       -3.5675688361        1.4772136520
 O         -0.8410411294        0.6648912931        1.3902993383
