  62
        -98.93555733
 C         -2.2827995445       -1.2706717993        0.1616868266
 C         -3.2263937870       -0.6135852757        0.9870698491
 C         -4.0361001880        0.4566879824        0.3724888865
 C         -3.8066237748        0.7793383450       -0.9136647880
 C         -4.4630648849        1.8566259989       -1.7352738269
 C         -3.9432086438        3.2615263805       -1.3892476447
 C         -3.8001402543        3.5452076287        0.1040215874
 H         -3.3214009891        4.5223830412        0.2111860082
 H         -3.1266476695        2.8076959622        0.5454418751
 C         -5.1086890136        3.5759470593        0.8904928167
 H         -5.7594862027        4.3458042873        0.4701569017
 H         -4.8640126397        3.8708162262        1.9141761464
 C         -5.8871266292        2.2599077583        0.9481991091
 H         -6.4191039741        2.0784662209        0.0182558505
 H         -6.6489437299        2.3674064458        1.7257856603
 C         -5.0522030983        1.0400074934        1.3249266699
 H         -5.7324961260        0.2157582177        1.5716615446
 H         -4.5082613810        1.2504011746        2.2528889792
 H         -4.6110137557        3.9977052515       -1.8396670127
 H         -2.9562516324        3.3776539524       -1.8447662650
 H         -5.5423119630        1.8043635818       -1.6267820563
 H         -4.2219093336        1.6454057670       -2.7794286595
 O         -2.8512802240        0.1541200074       -1.6585970381
 C         -2.0658775539       -0.8714541401       -1.1578127046
 O         -1.2403908486       -1.3203739895       -1.9739681180
 O         -3.3849476280       -0.8990811708        2.2052547837
 C         -1.4380087788       -2.3663538222        0.7876103702
 C          0.0180526134       -2.1295768315        0.4734929417
 C          0.8249295475       -3.0382002743       -0.1969451567
 C          2.1467992228       -2.7307683793       -0.4697186078
 C          2.6925050327       -1.5220772711       -0.0794285437
 C          1.8929593310       -0.6034438946        0.5884022325
 C          0.5723878339       -0.9169889824        0.8664114262
 H         -0.0529515234       -0.1967933193        1.3815483864
 N          2.4381759120        0.6271232463        0.9982676450
 S          3.2738662366        1.5407124740       -0.1375484764
 O          3.1844293626        2.9031815770        0.3434551245
 O          2.7961869897        1.3011592660       -1.4793955281
 C          4.9561207962        0.9805005904        0.0268661429
 C          5.6455820530        0.5391458624       -1.0853735918
 C          6.9578303873        0.1173490024       -0.9364485710
 C          7.5538372552        0.1451316968        0.3150275956
 C          6.8480676891        0.5934006455        1.4217782566
 C          5.5366647454        1.0177130420        1.2796592046
 H          4.9548874678        1.3762908359        2.1121906942
 H          7.3148143086        0.6133582199        2.3933626455
 H          8.5744856935       -0.1845248626        0.4283362918
 H          7.5074617498       -0.2313730618       -1.7959440043
 H          5.1378012580        0.5290648006       -2.0368710761
 H          1.7827889408        1.2101172320        1.4991651187
 H          3.7187740078       -1.2770153674       -0.2991678343
 H          2.7606332477       -3.4429163368       -0.9998527396
 H          0.4123589311       -3.9754185150       -0.5318231297
 H         -1.5756560226       -2.2254408787        1.8732623656
 C         -1.9055618663       -3.7796822209        0.4765546692
 C         -3.3433355473       -4.0652700450        0.1643986392
 C         -2.3017340548       -4.2131383060       -0.9018221385
 H         -2.0355060427       -5.2104374355       -1.2205451168
 H         -2.2584116581       -3.4773830138       -1.6892178496
 H         -3.7907525262       -4.9571001362        0.5768349806
 H         -4.0192989975       -3.2244380595        0.1052333399
 H         -1.3943293243       -4.5161263611        1.0889608628
