  62
        -98.94291489
 C          1.9522266790        0.6205438309        0.8157440103
 C          2.8748680962        1.1761632269       -0.1045923275
 C          4.2475097910        0.6502539848       -0.0343438284
 C          4.5547926507       -0.2918302040        0.8742848935
 C          5.8955242180       -0.9520463799        1.0104239157
 C          5.9771253140       -2.2257672686        0.1574164472
 C          5.5133239606       -2.0336403293       -1.2866043995
 H          5.6447132522       -2.9890390631       -1.7993646179
 H          4.4433647538       -1.8123287614       -1.2905833820
 C          6.2617312211       -0.9342798943       -2.0533329965
 H          7.1984404072       -0.7011328515       -1.5457397396
 H          6.5163675716       -1.3119145529       -3.0458721813
 C          5.4616879724        0.3534487805       -2.2579255494
 H          4.4827246353        0.1126548901       -2.6797682785
 H          5.9914278749        0.9695833042       -2.9892776208
 C          5.2485777355        1.2119092131       -1.0048198758
 H          6.2064230894        1.3880230522       -0.5115379587
 H          4.8449504988        2.1758884695       -1.3274440796
 H          7.0091135550       -2.5813978871        0.1662395961
 H          5.3497709563       -2.9920815339        0.6189240192
 H          6.6723030967       -0.2511884329        0.7108260213
 H          6.0428635564       -1.2175621148        2.0586905447
 O          3.6487690261       -0.7889591982        1.7547605454
 C          2.3352721032       -0.3545002281        1.7421239620
 O          1.6124256455       -0.8978976221        2.6027384142
 H         -1.4180409562       -0.8511586865        1.1748778800
 C         -1.2601561447       -0.5929749580        0.1380593423
 C         -0.3107436132        0.3590165477       -0.2058698390
 C         -0.1158224132        0.6533932687       -1.5521407541
 C         -0.8536951768        0.0044556976       -2.5244745602
 C         -1.8116630817       -0.9322001513       -2.1766822493
 C         -2.0144264447       -1.2338664195       -0.8360083584
 N         -2.9829849016       -2.1803453405       -0.4484000499
 S         -4.1628575282       -1.7060026522        0.6407991176
 O         -3.5760569450       -1.4598200091        1.9324022248
 O         -5.1671060408       -2.7440602844        0.5757048215
 C         -4.8043263667       -0.1921921856       -0.0507280692
 C         -5.8659725836       -0.2605600818       -0.9318315691
 C         -6.3139318684        0.9041983847       -1.5335829119
 C         -5.6867371900        2.1095116425       -1.2558536725
 C         -4.6206781195        2.1610972840       -0.3710503497
 C         -4.1733313077        1.0006698565        0.2402585291
 H         -3.3497184795        1.0028248905        0.9350254475
 H         -4.1306798490        3.0967588456       -0.1546578839
 H         -6.0309508531        3.0151311785       -1.7298308416
 H         -7.1455686970        0.8682316610       -2.2186990902
 H         -6.3256546419       -1.2182574994       -1.1155448463
 H         -3.4131978440       -2.6617130620       -1.2258291404
 H         -2.3920594414       -1.4339023498       -2.9363704537
 H         -0.6873601383        0.2363282522       -3.5654512157
 H          0.6353947798        1.3770926544       -1.8273737514
 C          0.4900866466        1.0382141308        0.8796959647
 H          0.1220991189        0.6642882543        1.8451822344
 C          0.3016088440        2.5424678817        0.8492740646
 C         -0.9161780562        3.1364180697        1.4875702638
 C          0.4284802344        3.3168429583        2.1248257280
 H          0.8924079565        4.2910827461        2.0923550560
 H          0.6441735246        2.7613452421        3.0266130144
 H         -1.3793443822        3.9906880849        1.0186120980
 H         -1.6110654624        2.4633214257        1.9681095463
 H          0.6798235961        3.0086760457       -0.0502172487
 O          2.5936405715        2.0657837959       -0.9493298165
