  62
        -98.94571196
 C         -0.9730616090       -1.1423788248       -0.2436877185
 C         -2.0184072888       -1.1998722927        0.7159793974
 C         -2.9059873029       -0.0353468019        0.7840410705
 C         -2.6920999078        1.0102329837       -0.0343708685
 C         -3.5076735291        2.2736765295       -0.0883142156
 C         -4.7770208353        2.1610022726       -0.9443903675
 C         -5.9064254758        1.3317163188       -0.3318796287
 H         -6.1084928874        1.6848850107        0.6797620313
 H         -6.8018587349        1.5209712710       -0.9273798596
 C         -5.6414864781       -0.1801010322       -0.3082231555
 H         -4.8316221037       -0.4191859370       -1.0014122560
 H         -6.5293438698       -0.7110043685       -0.6594333019
 C         -5.2936558906       -0.7414514235        1.0704496480
 H         -5.0896215991       -1.8098294560        0.9634201605
 H         -6.1500132769       -0.6280449700        1.7389933449
 C         -4.0701402167       -0.0888383108        1.7269758798
 H         -4.3214635996        0.9115704738        2.0779026675
 H         -3.7759064583       -0.6988322977        2.5843317769
 H         -5.1497391658        3.1746637686       -1.1091976631
 H         -4.5065114072        1.7447778598       -1.9175620577
 H         -3.7776137030        2.5799892355        0.9225578904
 H         -2.8667472848        3.0389875367       -0.5291782495
 O         -1.6689655816        1.0385477210       -0.9257556934
 C         -0.7877141539       -0.0260864347       -1.0597813371
 O          0.0837275311        0.1645192934       -1.9303941694
 O         -2.2029131603       -2.1862453135        1.4775148866
 C         -0.0638184276       -2.3577477313       -0.3264378357
 C          1.1898034472       -2.1321778977        0.4837096714
 C          1.4049186336       -2.8496129526        1.6553727282
 C          2.5407716960       -2.6350931959        2.4149765582
 C          3.4747789160       -1.6924873350        2.0270426274
 C          3.2653773224       -0.9645104650        0.8595280185
 C          2.1331605314       -1.1922630271        0.0901517450
 H          1.9837010387       -0.6217731313       -0.8130201937
 N          4.1946514002        0.0027213776        0.4599454262
 S          3.7905701698        1.2883941966       -0.5168334511
 O          3.6824364227        0.8606440063       -1.8880944336
 O          4.8378787631        2.2573197528       -0.2553508675
 C          2.2460525988        1.9647145394        0.0692630688
 C          1.4734623696        2.6630789414       -0.8353507834
 C          0.3143185081        3.2807803368       -0.3952837668
 C         -0.0580000706        3.1808431831        0.9355254010
 C          0.7244103673        2.4697653894        1.8309180996
 C          1.8938057183        1.8638516754        1.4000355732
 H          2.5154236537        1.3130304919        2.0870137577
 H          0.4277297990        2.3843834458        2.8641350610
 H         -0.9646070322        3.6552636715        1.2771249611
 H         -0.2960270266        3.8267290465       -1.0969421023
 H          1.7832218014        2.6949732267       -1.8674343006
 H          4.9086515990        0.2361250638        1.1332530168
 H          4.3595718837       -1.5157969696        2.6192012200
 H          2.6972157960       -3.2008070641        3.3206671039
 H          0.6650865649       -3.5687667544        1.9743246923
 H         -0.6285379278       -3.1673239562        0.1565018585
 C          0.2628342023       -2.7865733091       -1.7423083836
 C          0.6575676300       -4.2100633674       -1.9936579516
 C         -0.6745030632       -3.7072991879       -2.4619127994
 H         -0.8305195060       -3.5585661576       -3.5199048255
 H         -1.5576384673       -4.0352721870       -1.9328294391
 H          1.4209160727       -4.4090846264       -2.7301714927
 H          0.6757991463       -4.8814460897       -1.1484152531
 H          0.7505103856       -2.0186995403       -2.3287633070
