  62
        -98.94503857
 C          1.8517347285        1.2611496686       -0.0416930803
 C          3.0727689295        0.9105372939        0.5817825641
 C          3.8430046068       -0.1617040527       -0.0630680860
 C          3.3606094244       -0.7378825363       -1.1794116206
 C          4.0112723638       -1.8798674577       -1.9041106690
 C          3.5043889099       -3.2319867086       -1.3826405999
 C          3.5344383920       -3.3580552964        0.1407001469
 H          2.8213032942       -2.6513613081        0.5723964701
 H          3.1816521321       -4.3609256534        0.3917491527
 C          4.9158635245       -3.1283389382        0.7697361650
 H          5.6903351047       -3.2274780214        0.0083700072
 H          5.0939873181       -3.9051344816        1.5163620840
 C          5.0730081679       -1.7824710299        1.4799804223
 H          4.2470947186       -1.6396691626        2.1818775322
 H          5.9959332351       -1.8129581694        2.0651275556
 C          5.1500965865       -0.5515163867        0.5679273985
 H          5.4496666184        0.2998609038        1.1862522578
 H          5.9151456744       -0.7072662909       -0.1954411279
 H          4.1121348035       -4.0230588981       -1.8254569190
 H          2.4732611567       -3.3698500288       -1.7170953382
 H          3.7697947223       -1.7968394920       -2.9650746082
 H          5.0905297040       -1.8135407304       -1.7810029475
 O          2.1857591145       -0.3731334535       -1.7525226096
 C          1.4009099914        0.6356534804       -1.2048638346
 O          0.3511103911        0.8619732123       -1.8314900594
 H          0.1886105399       -0.1253039106        1.1865627731
 C         -0.6308802704        0.5827786866        1.2019182217
 C         -0.3868569793        1.9149825964        0.8996869538
 C         -1.4578685883        2.8018291469        0.9299661714
 C         -2.7295757725        2.3635240771        1.2552585075
 C         -2.9699173155        1.0311503725        1.5362225918
 C         -1.9104468576        0.1343038092        1.4937723518
 N         -2.1510257677       -1.2311642470        1.7206731007
 S         -3.4903570277       -1.9106405318        0.9759532004
 O         -4.6403850063       -1.7517554433        1.8326632699
 O         -3.1108388039       -3.2781404302        0.6925558592
 C         -3.7511201185       -0.9980472380       -0.5365379718
 C         -2.6840558873       -0.7847959262       -1.3855169193
 C         -2.8818949877       -0.0484402112       -2.5417922574
 C         -4.1423615918        0.4471145497       -2.8369451270
 C         -5.2089791680        0.2104882538       -1.9832128765
 C         -5.0128520957       -0.5130144363       -0.8181837228
 H         -5.8085432744       -0.7039959955       -0.1163664262
 H         -6.1886627205        0.5955609936       -2.2162384444
 H         -4.2907409376        1.0237947078       -3.7362646096
 H         -2.0374623332        0.1494212482       -3.1822984154
 H         -1.7051881005       -1.1668778345       -1.1429756208
 H         -1.3374483918       -1.8152870376        1.5954269398
 H         -3.9549659076        0.6697659875        1.7842281146
 H         -3.5472548753        3.0669436565        1.2816193210
 H         -1.2938140294        3.8410281926        0.6970441601
 C          1.0144412726        2.3686744965        0.5665756721
 H          1.5201723053        2.6320132520        1.5084990049
 C          1.0271684350        3.5827986903       -0.3437953564
 C          1.0599935127        4.9690381033        0.2251101976
 C          2.2790077429        4.4015343433       -0.4354223889
 H          2.5757518630        4.7868423820       -1.3993413011
 H          3.1090882295        4.1054287408        0.1896359031
 H          1.0729539975        5.0715553763        1.2998521383
 H          0.5184358419        5.7493982842       -0.2881349041
 H          0.4702100270        3.4173626621       -1.2592200774
 O          3.4973199928        1.4661961718        1.6314474489
