  62
        -98.94124764
 C         -2.4763521599       -1.3595283673       -0.0212935345
 C         -3.2399436577       -0.7157253825        0.9880408692
 C         -4.1205475836        0.3710002324        0.5489841833
 C         -4.1733422252        0.6979372006       -0.7545387715
 C         -5.0434127472        1.7606617881       -1.3688298370
 C         -4.4539892877        3.1754652740       -1.2884881526
 C         -4.4699676541        3.8085710104        0.1033927555
 H         -4.2373096556        4.8676321636       -0.0241079286
 H         -5.4757295127        3.7433559507        0.5195873833
 C         -3.4625550882        3.1986915596        1.0884163510
 H         -2.7084513864        2.6308789514        0.5371563666
 H         -2.9335813575        3.9989865223        1.6111208770
 C         -4.0837198773        2.2950111948        2.1538348538
 H         -4.7339093048        2.8870887305        2.8016896417
 H         -3.2762723982        1.8871107228        2.7673180857
 C         -4.8936710959        1.1193436905        1.5922866307
 H         -5.1036065298        0.4261733777        2.4104383972
 H         -5.8386181475        1.4753429422        1.1824035401
 H         -3.4281560224        3.1499333440       -1.6643385453
 H         -5.0376974339        3.8098748631       -1.9595616368
 H         -5.1605743662        1.4959054027       -2.4219311104
 H         -6.0255693863        1.7476167084       -0.8953319192
 O         -3.4299863765        0.0582728987       -1.6939124279
 C         -2.5511315599       -0.9655833521       -1.3573793556
 O         -1.9251566218       -1.4184936754       -2.3352596783
 O         -3.1966473820       -1.0489201177        2.2020957046
 C         -1.5739460374       -2.4950290769        0.4325006291
 C         -0.1719161526       -2.0000720457        0.6794223233
 C          0.4454511708       -2.1748572222        1.9119744556
 C          1.7248825520       -1.6943912971        2.1328676384
 C          2.4140593447       -1.0348082100        1.1310640794
 C          1.8030729640       -0.8488962066       -0.1023503774
 C          0.5209253070       -1.3301000896       -0.3204500410
 H          0.0479226929       -1.1804779792       -1.2803792287
 N          2.4967905486       -0.1817120364       -1.1310480152
 S          3.0564142415        1.3659044726       -0.7852062771
 O          2.2363166346        2.0115843705        0.2148587880
 O          3.1571737339        2.0335826169       -2.0646123639
 C          4.6944802016        1.0836250549       -0.1467854920
 C          5.5906717910        0.3947294514       -0.9406733832
 C          6.8696594429        0.1639129386       -0.4600428105
 C          7.2295794653        0.6258081802        0.7974373349
 C          6.3195681131        1.3197395935        1.5801644100
 C          5.0378477273        1.5529986575        1.1058749215
 H          4.2940001579        2.0812413755        1.6808688640
 H          6.6012623151        1.6786606842        2.5570343259
 H          8.2254038696        0.4439947946        1.1696088111
 H          7.5801348155       -0.3749222340       -1.0659444870
 H          5.2709275010        0.0565629761       -1.9121820435
 H          1.9901619561       -0.1779014220       -2.0057524836
 H          3.4103808950       -0.6587289001        1.2967439517
 H          2.1911622475       -1.8353219267        3.0958974207
 H         -0.0915604120       -2.6755494785        2.7042400900
 H         -1.9902592430       -2.8013055932        1.4051836645
 C         -1.6337470261       -3.7074348659       -0.4877667968
 C         -0.4779331532       -4.1977409399       -1.3027580803
 C         -0.9242703638       -4.9717776212       -0.1013130552
 H         -1.4285257981       -5.9149927508       -0.2460522955
 H         -0.2945618035       -4.9348309271        0.7748908818
 H         -0.6933540681       -4.5882077734       -2.2857855833
 H          0.4564347103       -3.6623921958       -1.2449925854
 H         -2.6145763623       -3.8199471412       -0.9391087604
