  62
        -98.94055534
 C          2.0715376546        0.9823100209        0.2341816109
 C          1.9011970180       -0.0608224557       -0.7098410535
 C          2.2112213387       -1.4174583113       -0.2300899302
 C          2.6016993679       -1.6031556995        1.0425960156
 C          2.9993503310       -2.9220007936        1.6387052337
 C          4.5049325010       -3.1754190344        1.4749701804
 C          5.0202966239       -2.9470797111        0.0539779240
 H          4.9232102349       -1.8877271364       -0.1939307933
 H          6.0867346737       -3.1821959369        0.0532416504
 C          4.3114855024       -3.7835383865       -1.0203175338
 H          3.7851337636       -4.6168663778       -0.5536779327
 H          5.0640681436       -4.2070658851       -1.6885869535
 C          3.3336456564       -2.9954058418       -1.8941022966
 H          3.8310058644       -2.1085854681       -2.2947229852
 H          3.0508124467       -3.6239223852       -2.7427175991
 C          2.0382112903       -2.5480321252       -1.2050375255
 H          1.3553236317       -2.1760412330       -1.9753998918
 H          1.5621293652       -3.4024230047       -0.7183528792
 H          4.7166532778       -4.2016513696        1.7803602327
 H          5.0427213499       -2.5020680987        2.1462153074
 H          2.7544258620       -2.9046032926        2.7020363324
 H          2.4301792363       -3.7160182844        1.1589686892
 O          2.7323369646       -0.5829164579        1.9283772887
 C          2.4627859915        0.7198220091        1.5499270083
 O          2.6195436578        1.5569379845        2.4632856674
 H         -0.4394814366        1.0194407994       -0.7862688472
 C         -0.6852975373        1.8932557799       -0.2027330359
 C          0.3151603910        2.7447977155        0.2417693598
 C         -0.0429093125        3.8697599392        0.9758736818
 C         -1.3699779109        4.1253152838        1.2706289552
 C         -2.3609467333        3.2516999722        0.8616337164
 C         -2.0131142298        2.1267144073        0.1221786248
 N         -2.9895319055        1.2156728411       -0.3110765712
 S         -2.5865466151       -0.4280300042       -0.3038854662
 O         -1.7633859947       -0.7322143987        0.8454466429
 O         -2.0601108931       -0.7850610125       -1.5961084645
 C         -4.2082731874       -1.1480370366       -0.1103419544
 C         -5.0119649907       -1.2856994500       -1.2265990629
 C         -6.2855187774       -1.8106127810       -1.0745916689
 C         -6.7326242537       -2.1856922110        0.1837716001
 C         -5.9144652877       -2.0429877517        1.2943719430
 C         -4.6399384387       -1.5174310283        1.1494153180
 H         -3.9649141352       -1.3946334992        1.9813858444
 H         -6.2629408338       -2.3382419237        2.2709198412
 H         -7.7238434881       -2.5946166088        0.2994270234
 H         -6.9230883690       -1.9255662253       -1.9362107338
 H         -4.6164021804       -0.9888440022       -2.1839596622
 H         -3.8947797886        1.3784907258        0.1091011447
 H         -3.3945232639        3.4357551784        1.1125373112
 H         -1.6337814792        5.0017647048        1.8427270116
 H          0.7296118025        4.5341623824        1.3334123824
 C          1.7666724210        2.4440317102       -0.0531029452
 H          2.3739371301        3.0222716170        0.6581976165
 C          2.1221182136        2.8924988780       -1.4569495150
 C          2.4567402763        4.3320379645       -1.7017753149
 C          3.5325941071        3.2906350468       -1.7661360840
 H          3.9417576446        3.0226491907       -2.7284296416
 H          4.2501088269        3.2474110262       -0.9593109972
 H          2.1245952769        4.7855198943       -2.6228319637
 H          2.4520565091        5.0005944994       -0.8544507234
 H          1.5746730227        2.3624511263       -2.2251853516
 O          1.5189734978        0.1041516229       -1.8991740598
