  62
        -98.94753222
 C         -1.3359941810       -1.6279196409       -0.5023011040
 C         -1.1949339089       -0.3180898767       -1.0254643542
 C         -2.3822708477        0.5458412227       -0.9225644715
 C         -3.5102349758        0.0680728063       -0.3691858229
 C         -4.7783848862        0.8480554445       -0.1779620028
 C         -4.8203284180        1.5234816569        1.1990511029
 C         -3.5536586112        2.3081271752        1.5413483312
 H         -3.7145371449        2.7796285642        2.5136640787
 H         -2.7164376196        1.6152127088        1.6596911765
 C         -3.1719909707        3.3793945431        0.5108329546
 H         -2.8940263901        4.2913400113        1.0438229430
 H         -4.0327196441        3.6179216362       -0.1158160710
 C         -1.9819109835        3.0019970401       -0.3737506627
 H         -1.6395195829        3.9082237956       -0.8826662499
 H         -1.1653723949        2.6442460896        0.2601980084
 C         -2.2593668636        1.9465180887       -1.4526298919
 H         -3.1501174240        2.2253110114       -2.0201485319
 H         -1.4041706340        1.9332477551       -2.1346822222
 H         -4.9608355015        0.7525106958        1.9602040662
 H         -5.6826150749        2.1923942149        1.2293388807
 H         -4.8595135063        1.5965008483       -0.9637697041
 H         -5.6195073969        0.1570372144       -0.2582420045
 O         -3.6132399481       -1.1955714145        0.1157254189
 C         -2.5324822288       -2.0583954604        0.0791516572
 O         -2.7622701848       -3.1800896511        0.5770230894
 H          1.2469157291       -0.4514766106        0.0242433909
 C          1.3852818673       -1.2042774930        0.7818347808
 C          0.7085198284       -2.4105072853        0.6765382309
 C          0.8882596265       -3.3671377319        1.6686615579
 C          1.7196708181       -3.1127295229        2.7453697879
 C          2.3721387564       -1.8982756406        2.8607310071
 C          2.1967939170       -0.9354127006        1.8729920143
 N          2.8488210214        0.3034871797        1.9404350325
 S          2.0966121950        1.6745903000        1.3378402971
 O          2.7938946711        2.7720947322        1.9812520107
 O          0.6694156864        1.6399511394        1.5608901678
 C          2.4938651884        1.7104140218       -0.3971101869
 C          3.5390654621        0.9539283975       -0.8862684832
 C          3.8482504771        1.0353286643       -2.2345524187
 C          3.1171047326        1.8702284334       -3.0645400749
 C          2.0768186646        2.6299926961       -2.5547689211
 C          1.7618569598        2.5523722863       -1.2082426831
 H          0.9521481182        3.1180739005       -0.7769602580
 H          1.5042748205        3.2764212836       -3.2008473777
 H          3.3554749365        1.9258577347       -4.1152573246
 H          4.6550602306        0.4414669198       -2.6337243095
 H          4.0822579969        0.3039257857       -0.2204174753
 H          3.3493600468        0.4892778299        2.7967981075
 H          3.0072472190       -1.6928766488        3.7090992498
 H          1.8511312612       -3.8627685238        3.5106492018
 H          0.3570255650       -4.3053530851        1.6013029154
 C         -0.2137732390       -2.6566837226       -0.4930424558
 H         -0.7027393517       -3.6279466394       -0.3368733736
 C          0.5662405650       -2.7145977317       -1.7922600314
 C          1.3274974810       -3.9610729127       -2.1250925014
 C          0.0898641992       -3.6100558601       -2.8942141855
 H          0.1913714111       -3.2692561158       -3.9134398721
 H         -0.8042190877       -4.1901449554       -2.7157400955
 H          1.2726113042       -4.7829306123       -1.4272236708
 H          2.2828454121       -3.8639084094       -2.6169572838
 H          1.0006404424       -1.7652180502       -2.0752022496
 O         -0.1504287110        0.1285780888       -1.5690617014
