  62
        -98.94312788
 C          2.5878053998       -0.0621844652       -0.3784157634
 C          2.7062043007       -1.0843517275        0.5994896561
 C          2.1334848998       -2.3883065589        0.2588292390
 C          1.5413172445       -2.5583295345       -0.9364559095
 C          0.8574674239       -3.8089282966       -1.4173797289
 C         -0.5882996249       -3.9325546933       -0.9155368749
 C         -0.7325181415       -4.3323888248        0.5540022912
 H         -1.7710542569       -4.6355397736        0.7012655983
 H         -0.1059853922       -5.2018434893        0.7577823181
 C         -0.4039826363       -3.2097694589        1.5483178691
 H         -0.4431911672       -2.2460130133        1.0344482188
 H         -1.1672840848       -3.1848359732        2.3302418114
 C          0.9469408445       -3.3522432043        2.2502870450
 H          0.9334857529       -4.2344574370        2.8952682005
 H          1.0957939622       -2.4725277357        2.8816931779
 C          2.1496504366       -3.4618769976        1.3052372086
 H          3.0602085436       -3.3331350900        1.8961281644
 H          2.1723372222       -4.4454597037        0.8362768261
 H         -1.0933809011       -2.9768428327       -1.0811153052
 H         -1.0853452935       -4.6877749816       -1.5294159724
 H          0.8434929381       -3.7577473124       -2.5082777590
 H          1.4300781891       -4.6867072231       -1.1157878033
 O          1.5076352389       -1.5795823659       -1.8760214855
 C          1.9830287707       -0.3012150795       -1.6130620564
 O          1.8250212342        0.4863624001       -2.5684539979
 O          3.2674685791       -0.9068871006        1.7151575889
 C          3.0184578377        1.3259962569        0.0663921739
 C          1.8521188091        1.9596482999        0.7918037931
 C          1.9970839974        2.5135130271        2.0577755083
 C          0.8970386975        3.0023022021        2.7410909950
 C         -0.3692981946        2.9133381176        2.1923784377
 C         -0.5218175653        2.3694981681        0.9214138017
 C          0.5897952846        1.9350585709        0.2170566453
 H          0.4508618416        1.5293022203       -0.7739224910
 N         -1.7864342914        2.2343043039        0.3286337870
 S         -2.0614055493        0.8383554532       -0.5922855683
 O         -1.3198216839       -0.2747234449       -0.0492308832
 O         -1.8417860380        1.1579039314       -1.9807565810
 C         -3.8081352398        0.6012524871       -0.3156874046
 C         -4.2298769497       -0.3783532608        0.5625321963
 C         -5.5886505343       -0.5357476573        0.7887820222
 C         -6.4963542297        0.2876382747        0.1400563561
 C         -6.0577009611        1.2670115311       -0.7391683802
 C         -4.7011714373        1.4278379922       -0.9719970046
 H         -4.3130990510        2.1657568687       -1.6548108127
 H         -6.7663406665        1.9035099054       -1.2439680294
 H         -7.5527368435        0.1634786122        0.3183202128
 H         -5.9320754176       -1.2989101777        1.4683420434
 H         -3.4859885610       -0.9970879932        1.0387901491
 H         -2.5485810003        2.4260766767        0.9643621589
 H         -1.2333071282        3.2553274018        2.7415683037
 H          1.0229239188        3.4284612186        3.7247831624
 H          2.9742147253        2.5339815586        2.5168073580
 H          3.8213219588        1.1688720006        0.8006838988
 C          3.5377244550        2.2358423022       -1.0256583728
 C          4.4632550624        3.3560104291       -0.6580376007
 C          4.9832802235        2.1706589022       -1.4131673736
 H          5.2389184787        2.2875282392       -2.4552749129
 H          5.6085514542        1.4640899009       -0.8870634592
 H          4.3636479697        4.2950539369       -1.1800762680
 H          4.7427984907        3.4558036144        0.3796877329
 H          2.8195076256        2.4128387683       -1.8155958153
