  62
        -98.93860441
 C         -0.9203375374       -1.3319814439        0.1620559640
 C         -1.9216253506       -0.9773975883        1.0980116641
 C         -2.6536762837        0.2749217075        0.8452228280
 C         -2.3140653689        1.0291491433       -0.2135639912
 C         -2.8919836571        2.3509338631       -0.6566143320
 C         -4.4103794369        2.5370791411       -0.5485047402
 C         -5.2362487462        1.2741953901       -0.8335974673
 H         -5.9941177441        1.5063097678       -1.5839374201
 H         -4.5948810544        0.4944214930       -1.2475827185
 C         -5.9526913230        0.7369241742        0.4072520542
 H         -6.7773849867        0.0954210558        0.0875902455
 H         -6.3854116536        1.5773678936        0.9542834066
 C         -5.0840737366       -0.0843558093        1.3594317941
 H         -5.6775795908       -0.3081497373        2.2491967938
 H         -4.8290824896       -1.0420562883        0.8972063981
 C         -3.7708687433        0.5830813897        1.8003276629
 H         -3.8987135139        1.6539037438        1.9404628745
 H         -3.4747271636        0.1436710621        2.7572636730
 H         -4.6823965763        3.3190129061       -1.2596982825
 H         -4.6636057426        2.9133317839        0.4415237648
 H         -2.3931539111        3.1444301436       -0.0916795411
 H         -2.5882328025        2.4548855243       -1.7009935301
 O         -1.3074438227        0.6768035465       -1.0608144731
 C         -0.5773502931       -0.4910162378       -0.8963506666
 O          0.3205582186       -0.6475672870       -1.7431149968
 H          1.2171690691       -0.5874943878        1.4511784842
 C          1.8667868709       -1.2527029875        0.9005997768
 C          1.3347605479       -2.3721272118        0.2717734656
 C          2.1959932833       -3.2124079013       -0.4220319431
 C          3.5500791686       -2.9318830132       -0.4851470147
 C          4.0702050886       -1.8040253888        0.1209256227
 C          3.2149219582       -0.9531808420        0.8128365419
 N          3.7008035863        0.2116458050        1.4318919649
 S          2.8165348255        1.6224090963        1.3736210048
 O          3.7777189083        2.6531129380        1.7140944965
 O          1.6698460250        1.5386667707        2.2457595256
 C          2.2855999602        1.8790311607       -0.3105039184
 C          3.0557194667        1.4394646199       -1.3673938127
 C          2.6435910227        1.7235788600       -2.6587885344
 C          1.4871913133        2.4550858529       -2.8721894863
 C          0.7313512649        2.9007988329       -1.8007523777
 C          1.1301847310        2.6060169552       -0.5079944592
 H          0.5593005632        2.9124913021        0.3552219903
 H         -0.1715597076        3.4665201619       -1.9659681837
 H          1.1677173914        2.6724880481       -3.8792686521
 H          3.2242691986        1.3674461854       -3.4943938057
 H          3.9532576783        0.8715029565       -1.1861493480
 H          4.6848172086        0.3916190901        1.2941773922
 H          5.1243712838       -1.5792223123        0.0605195924
 H          4.2074915892       -3.5949682798       -1.0264340922
 H          1.8089414383       -4.0815572925       -0.9272610729
 C         -0.1484239223       -2.6149141605        0.4043163127
 H         -0.3513466534       -2.8572666758        1.4621435357
 C         -0.6424459119       -3.8002954353       -0.4143315494
 C         -2.0048453266       -3.8024829384       -1.0390685899
 C         -0.7848795730       -3.7239187176       -1.9041631307
 H         -0.5184102852       -4.5903082840       -2.4915732652
 H         -0.5481097355       -2.7826251014       -2.3745391903
 H         -2.5721590012       -4.7212492456       -1.0248474448
 H         -2.6104732881       -2.9146779779       -0.9270210346
 H         -0.3094677264       -4.7484901718       -0.0037998640
 O         -2.1886120255       -1.6762467228        2.1131917196
