  62
        -98.93909756
 C         -2.3271183549       -1.2594587299       -0.0599819373
 C         -3.1087971296       -0.5704325350        0.9025663037
 C         -3.8147032180        0.6411587994        0.4556773155
 C         -3.6783158276        1.0479652215       -0.8198305136
 C         -4.2879352384        2.2170275705       -1.5645066376
 C         -4.9439992892        3.3678931084       -0.8060177194
 C         -3.9838769018        4.2136766954        0.0293860106
 H         -4.5724152562        4.9441328000        0.5888443216
 H         -3.3255630120        4.7641601295       -0.6476427506
 C         -3.0974661621        3.4409458050        1.0034474958
 H         -2.4766440170        4.1665162018        1.5363532314
 H         -2.4171123491        2.7909786310        0.4477224783
 C         -3.8412565546        2.6101412416        2.0477642301
 H         -4.5506511740        3.2439878846        2.5832144975
 H         -3.1006917691        2.2519292718        2.7677285827
 C         -4.5915752092        1.3804527306        1.5065428698
 H         -5.5774213729        1.6491642099        1.1348608037
 H         -4.7311553327        0.6794267646        2.3343747919
 H         -5.7585926476        2.9981596310       -0.1904196457
 H         -5.3881569464        4.0228879073       -1.5605030572
 H         -3.4859445786        2.6149323929       -2.1948616728
 H         -5.0288991712        1.7837492721       -2.2455655390
 O         -2.9241040191        0.3478100668       -1.7149717394
 C         -2.2225052590       -0.7951156645       -1.3694197578
 O         -1.5741135475       -1.2792999696       -2.3204664917
 H          0.3712943677       -1.8284473047       -1.3512021182
 C          0.7238159054       -1.7704852896       -0.3320037802
 C         -0.1374245242       -2.0917685584        0.7081287359
 C          0.3257316963       -1.9724961941        2.0134378893
 C          1.6155696026       -1.5400123436        2.2680848962
 C          2.4640542529       -1.2043171624        1.2279037126
 C          2.0062837326       -1.3120822004       -0.0783540908
 N          2.8513400216       -0.9171044863       -1.1432143566
 S          3.0993983737        0.7502544545       -1.2147173847
 O          1.9655692422        1.4766985869       -0.6862082031
 O          3.4634699826        1.0332815000       -2.5862042906
 C          4.5210557208        0.9987781341       -0.1719698222
 C          5.7158328009        0.4183548723       -0.5513373071
 C          6.8309596544        0.5981507927        0.2513347996
 C          6.7331976573        1.3522394616        1.4115054153
 C          5.5269806844        1.9301936911        1.7769208399
 C          4.4071430654        1.7532362153        0.9790229205
 H          3.4464795991        2.1773822159        1.2240569149
 H          5.4525077538        2.5158055288        2.6790976753
 H          7.6023179141        1.4907631272        2.0349738083
 H          7.7707119172        0.1507116280       -0.0292776353
 H          5.7467220724       -0.1543202005       -1.4630904019
 H          2.4974724559       -1.2220178394       -2.0407695745
 H          3.4661062235       -0.8553024657        1.4175441834
 H          1.9608119630       -1.4544286096        3.2870338534
 H         -0.3437710091       -2.1996704091        2.8303730499
 C         -1.5675302145       -2.4848042322        0.4254162708
 H         -2.0374809191       -2.7544383934        1.3805547268
 C         -1.6616948230       -3.6725384698       -0.5098565831
 C         -1.3443296271       -5.0376665429        0.0205737722
 C         -2.7589002777       -4.6736714149       -0.3141678062
 H         -3.2144828833       -5.1135311026       -1.1885813688
 H         -3.4493193201       -4.5057923961        0.4994300382
 H         -1.0751572945       -5.1172244006        1.0628395324
 H         -0.8253615234       -5.7313710549       -0.6227645844
 H         -1.3754569935       -3.4476324166       -1.5288712500
 O         -3.2220760240       -0.9614657005        2.0946673990
