  62
        -98.94437692
 C          2.3403081596        1.1259219391        0.2388609605
 C          2.3767672694       -0.1229839908       -0.4276844698
 C          3.3497047092       -1.0941094511        0.0911899500
 C          4.1025932892       -0.7872789215        1.1625733701
 C          5.1138238590       -1.6834495318        1.8244243899
 C          6.4961884191       -1.6659112719        1.1577022600
 C          6.5770894290       -2.3825811416       -0.1906495502
 H          7.6358787890       -2.4824134217       -0.4374864401
 H          6.1697866288       -3.3891660315       -0.0906546204
 C          5.8695968092       -1.6508180112       -1.3396789500
 H          5.6933644094       -0.6108400912       -1.0557309598
 H          6.5191608092       -1.6374525711       -2.2177072700
 C          4.5425078091       -2.2771262508       -1.7683850902
 H          4.7221251189       -3.2738284308       -2.1776051605
 H          4.1123134392       -1.6603269506       -2.5615500401
 C          3.5056450390       -2.3918471509       -0.6429867303
 H          2.5386020490       -2.6407611906       -1.0878018304
 H          3.7854368388       -3.1880799411        0.0466751295
 H          6.8129266792       -0.6273489419        1.0381941803
 H          7.1944847389       -2.1496917722        1.8444238299
 H          5.2214394590       -1.3241661221        2.8501122300
 H          4.7342970188       -2.7053150617        1.8526804097
 O          4.0095711394        0.4096567584        1.7999788304
 C          3.1439193096        1.3915622787        1.3513802806
 O          3.1786075798        2.4453655485        2.0174329108
 H         -0.4802689803        0.8719781001       -1.6570902897
 C         -0.8327280503        1.1179839999       -0.6680306697
 C         -0.0126745103        1.8229018795        0.1989190005
 C         -0.4747217503        2.0908053193        1.4843857706
 C         -1.7288174604        1.6695000794        1.8848089604
 C         -2.5442051905        0.9635669998        1.0168813402
 C         -2.0836694505        0.6736570500       -0.2597744998
 N         -2.8965476005       -0.0567971796       -1.1438372101
 S         -3.6262854308       -1.4576225396       -0.5740672104
 O         -2.8720791110       -2.0594855100        0.5012952395
 O         -3.8432518209       -2.2764413893       -1.7470532306
 C         -5.2044258008       -0.8895919395        0.0275841596
 C         -6.0094284006       -0.1724503691       -0.8358608602
 C         -7.2436376705        0.2705422610       -0.3883192202
 C         -7.6516204306       -0.0116992792        0.9069139797
 C         -6.8339449108       -0.7361320896        1.7604346396
 C         -5.5975576209       -1.1816168497        1.3188243895
 H         -4.9265119210       -1.7440195500        1.9487465294
 H         -7.1527948909       -0.9554740298        2.7667666795
 H         -8.6125020006        0.3346992608        1.2532790998
 H         -7.8823791604        0.8340415013       -1.0492019701
 H         -5.6565316005        0.0225268911       -1.8346691502
 H         -2.4574951305       -0.2276006995       -2.0376198001
 H         -3.5186781405        0.6223947299        1.3258542501
 H         -2.0753735204        1.8891506993        2.8832395205
 H          0.1717270498        2.6205276090        2.1703671707
 C          1.3880332498        2.2347750894       -0.1844070493
 H          1.6600446800        3.1087024192        0.4219713909
 C          1.5396101700        2.5948264097       -1.6476811892
 C          0.9397409802        3.8730163899       -2.1489851389
 C          2.4274676802        3.7390740596       -2.0300600189
 H          3.0130755002        3.6563479997       -2.9334821489
 H          2.9273415803        4.2716548893       -1.2340704287
 H          0.5018925803        3.8859657302       -3.1353121889
 H          0.4282964503        4.4965055098       -1.4313689288
 H          1.5316634898        1.7373039799       -2.3081792494
 O          1.6479568894       -0.4269469404       -1.4092403999
