  62
        -98.93928168
 C         -2.2547446877       -1.0687555481       -0.0063794701
 C         -1.9416983690        0.2613208364       -0.3822850154
 C         -2.7783070405        1.3113653484        0.2232960371
 C         -3.7551147875        0.9726561973        1.0830563890
 C         -4.7150183403        1.9347380070        1.7199400626
 C         -5.9774223451        2.1084054488        0.8635153642
 C         -5.6904825649        2.3870716018       -0.6118916435
 H         -5.2160823081        1.5085851674       -1.0551380385
 H         -6.6527167058        2.5194558102       -1.1111017202
 C         -4.8095577351        3.6182565206       -0.8658669106
 H         -5.2445161714        4.1983544330       -1.6823611735
 H         -4.8014522915        4.2571928071        0.0178558909
 C         -3.3690857205        3.2955457803       -1.2683486281
 H         -2.9008024592        4.2155174887       -1.6286136279
 H         -3.3691800128        2.5832019165       -2.0973304415
 C         -2.4763018036        2.7344349065       -0.1541251538
 H         -1.4437916715        2.7349094549       -0.5176115452
 H         -2.5280536439        3.3839656518        0.7224124761
 H         -6.5684685538        1.1922242437        0.9296002458
 H         -6.5677960503        2.9255584029        1.2816929351
 H         -5.0000773154        1.5390992432        2.6961510753
 H         -4.2206576589        2.8943909855        1.8575575915
 O         -4.0145485859       -0.3126067638        1.4336559393
 C         -3.2758281474       -1.3557430323        0.9042577417
 O         -3.6241911753       -2.4825843184        1.3111804697
 H          0.9127380404       -0.9533583575       -0.8753141983
 C          0.9337348864       -1.6511599118       -0.0538916503
 C         -0.1932557212       -2.3965361885        0.2640216439
 C         -0.1441525264       -3.2544440143        1.3590090207
 C          1.0061948837       -3.3653497287        2.1172829904
 C          2.1274849512       -2.6212918408        1.7988144253
 C          2.0892323348       -1.7595720175        0.7077611452
 N          3.2333006249       -1.0252024605        0.3508423379
 S          3.0549289970        0.5524845964       -0.2296166072
 O          2.1811710651        1.3058139505        0.6416471803
 O          2.7161080107        0.5013775135       -1.6278059730
 C          4.7373679814        1.1225252034       -0.0534946993
 C          5.6585739273        0.7673314670       -1.0207767521
 C          6.9752501524        1.1738395704       -0.8748109217
 C          7.3478576871        1.9248628008        0.2302237237
 C          6.4123306026        2.2761700713        1.1916197834
 C          5.0939751402        1.8708692435        1.0521401252
 H          4.3305765960        2.1267247548        1.7694709235
 H          6.7038244136        2.8629613703        2.0478044847
 H          8.3730833940        2.2406793341        0.3414669175
 H          7.7044745326        0.9047399526       -1.6218012126
 H          5.3194684887        0.1911759658       -1.8657267957
 H          3.9491729281       -1.0606729364        1.0647861895
 H          3.0273209943       -2.7052932830        2.3894093824
 H          1.0289282375       -4.0329311566        2.9653796462
 H         -1.0284109346       -3.8187430092        1.6192329924
 C         -1.4785655842       -2.2733488142       -0.5201081875
 H         -2.0987176191       -3.1468967619       -0.2752342653
 C         -1.2546343196       -2.2557156160       -2.0175348581
 C         -0.9167733784       -3.5405745778       -2.7102129896
 C         -2.2611234544       -2.9102723684       -2.9133163394
 H         -2.4786221055       -2.4494493473       -3.8652481962
 H         -3.1180639261       -3.3747418524       -2.4469230485
 H         -0.2071463021       -3.5143104536       -3.5228068424
 H         -0.8627766881       -4.4335368319       -2.1057180849
 H         -0.7867887224       -1.3495976498       -2.3791742034
 O         -1.0288058076        0.5783309439       -1.1893270413
