  62
        -98.94081319
 C         -2.5898506277       -1.3220939329        0.2210177273
 C         -2.4086549516       -0.2267841069       -0.6612055693
 C         -3.5317555823        0.7231768901       -0.7432283129
 C         -4.6421666035        0.5079387072       -0.0166873761
 C         -5.8329660256        1.4197802928        0.0292327453
 C         -5.6994648014        2.4479772095        1.1612434362
 C         -4.3513133966        3.1685449076        1.1858892629
 H         -4.3834804056        3.8910458119        2.0042230674
 H         -3.5641727030        2.4491836326        1.4240786207
 C         -3.9941562879        3.8922890097       -0.1198941329
 H         -3.6048478023        4.8830146714        0.1238570506
 H         -4.8922077031        4.0361365586       -0.7218825391
 C         -2.9269070261        3.1918663328       -0.9634191523
 H         -2.5975927438        3.8868219160       -1.7408900314
 H         -2.0557358442        2.9646179068       -0.3426587838
 C         -3.3697363617        1.9006037647       -1.6630614936
 H         -4.2890508040        2.0824016110       -2.2238523067
 H         -2.5833395196        1.6235371286       -2.3716871047
 H         -6.5028215525        3.1797368215        1.0593844774
 H         -5.8283983225        1.9313540088        2.1150742877
 H         -6.7235062875        0.8137444467        0.2041292881
 H         -5.9328418511        1.9277005625       -0.9279583856
 O         -4.7843301481       -0.5579021152        0.8109925731
 C         -3.7616259526       -1.4770453655        0.9694124730
 O         -4.0128331867       -2.3784520004        1.7935447122
 O         -1.3791846244       -0.0364762496       -1.3598916930
 C         -1.5094640100       -2.3646239220        0.4652396843
 C         -0.1980330957       -1.6759035579        0.7467137102
 C          0.0235827962       -1.1216985469        2.0037143071
 C          1.1969223856       -0.4446932733        2.2783987679
 C          2.1671769249       -0.2959749444        1.3025804823
 C          1.9446271595       -0.8255414756        0.0389321306
 C          0.7763546899       -1.5287194819       -0.2264545122
 H          0.6063750340       -1.9254339418       -1.2151452950
 N          2.9154832808       -0.6733756744       -0.9634251540
 S          3.7126210288        0.7924758940       -1.1250803608
 O          2.9057761241        1.9100121094       -0.6942781190
 O          4.1700895587        0.8194130599       -2.4977405322
 C          5.1265130366        0.6125999758       -0.0546603809
 C          5.4253091671        1.5997541522        0.8637685419
 C          6.5381880508        1.4463946144        1.6761587994
 C          7.3296472722        0.3146601139        1.5556471200
 C          7.0178631971       -0.6667291831        0.6264873305
 C          5.9075526530       -0.5186305276       -0.1890968173
 H          5.6332636201       -1.2563975341       -0.9243485731
 H          7.6355567377       -1.5456772566        0.5357240444
 H          8.1943835636        0.1969427122        2.1894614277
 H          6.7818414678        2.2088743241        2.3985435766
 H          4.7781418979        2.4603840433        0.9264774823
 H          2.6228220795       -1.0244757397       -1.8638558233
 H          3.0769343144        0.2451132474        1.5051282822
 H          1.3576678936       -0.0237011143        3.2593969584
 H         -0.7424546839       -1.2209217924        2.7609518998
 H         -1.8232240502       -2.8829021682        1.3852758036
 C         -1.3996723989       -3.4325338500       -0.6131892844
 C         -2.6357092981       -4.0106664620       -1.2335332998
 C         -1.7013754390       -3.1798632527       -2.0583482115
 H         -1.0934526614       -3.6792088906       -2.7992559555
 H         -2.0101286387       -2.1878652425       -2.3474122678
 H         -2.6756831154       -5.0746739363       -1.4111731056
 H         -3.5829979131       -3.5791886663       -0.9438395194
 H         -0.5947886185       -4.1302901054       -0.4018382092
