  62
        -98.94667735
 C         -1.1662093146       -1.3577643635        0.2864058489
 C         -1.3652360715       -0.3283117586       -0.6654226311
 C         -2.3482057791        0.6992695139       -0.2973578974
 C         -2.9332041455        0.6724315611        0.9127849864
 C         -3.9439732472        1.6574651943        1.4339011944
 C         -5.3853754844        1.3492172728        1.0051911904
 C         -5.6997626690        1.6334774708       -0.4642960004
 H         -6.7849135047        1.5837801235       -0.5744912950
 H         -5.3950152321        2.6511967714       -0.7100804457
 C         -5.0589987628        0.6489339084       -1.4527186230
 H         -4.7452832086       -0.2512520419       -0.9191426166
 H         -5.8027524597        0.3390266736       -2.1904015392
 C         -3.8635939881        1.2097388493       -2.2237019702
 H         -4.1943147239        2.0292757356       -2.8656484536
 H         -3.4699852009        0.4176904179       -2.8658226202
 C         -2.7187242819        1.7148919319       -1.3352943570
 H         -1.8417584146        1.8815338112       -1.9649769258
 H         -2.9984065115        2.6568791317       -0.8653920971
 H         -5.6010607464        0.3017549146        1.2282912338
 H         -6.0475128744        1.9623960218        1.6209068287
 H         -3.8920342810        1.6114956238        2.5238286146
 H         -3.6818156520        2.6658651657        1.1126493472
 O         -2.6447762467       -0.2798576170        1.8378153157
 C         -1.7949956050       -1.3283362924        1.5363790167
 O         -1.6740790351       -2.1643648900        2.4539440396
 H          1.2531416037       -0.8551204531       -1.3937152157
 C          1.8111967382       -1.3064944634       -0.5867025622
 C          1.1790978801       -2.2147682331        0.2508211433
 C          1.9032592628       -2.7616159071        1.3034926671
 C          3.2264825141       -2.4094799382        1.5098990892
 C          3.8514726502       -1.4984653497        0.6764333872
 C          3.1307132669       -0.9408478486       -0.3710166294
 N          3.7419362430        0.0393337367       -1.1904774431
 S          3.9579458952        1.5177282743       -0.4332827866
 O          4.3803242567        2.4365397347       -1.4651936324
 O          4.8648294617        1.3371628409        0.6714609268
 C          2.3465341381        1.9846054276        0.1769381527
 C          1.8730336622        1.3983740795        1.3341794363
 C          0.6059680181        1.7331410966        1.7828118341
 C         -0.1570089277        2.6503262228        1.0776441018
 C          0.3307713351        3.2267633756       -0.0844093986
 C          1.5905735320        2.8842618236       -0.5466745669
 H          2.0078837259        3.3080975970       -1.4461075523
 H         -0.2679822390        3.9369477160       -0.6314589357
 H         -1.1369119251        2.9154320356        1.4409183072
 H          0.2154477067        1.2722165728        2.6770393462
 H          2.4971543034        0.7017023694        1.8700962202
 H          3.2309602316        0.1934577369       -2.0498957903
 H          4.8712410612       -1.1894642603        0.8382763355
 H          3.7754050265       -2.8443176726        2.3314346832
 H          1.4159048424       -3.4546592113        1.9739474636
 C         -0.2731548798       -2.5660313368        0.0412271215
 H         -0.5532207926       -3.2999843147        0.8084043463
 C         -0.4973013039       -3.1907924491       -1.3225963729
 C         -0.1008839346       -4.6184862923       -1.5414012222
 C         -1.5508215598       -4.2433158655       -1.4816439797
 H         -2.1285230689       -4.2607731988       -2.3936695880
 H         -2.1146217778       -4.5240472150       -0.6036142383
 H          0.3199563175       -4.8961910639       -2.4955446888
 H          0.3178411423       -5.1556062973       -0.7037559378
 H         -0.3616241017       -2.4989306062       -2.1431082612
 O         -0.7748350439       -0.2485336213       -1.7758339381
