  62
        -98.93908291
 C         -1.8111884993       -1.0262455158        0.3796424274
 C         -2.2879271391        0.0697904098        1.1445907102
 C         -3.7413626530        0.2750570876        1.1640991138
 C         -4.5318709485       -0.5787494918        0.4891038339
 C         -6.0231375365       -0.4583542069        0.3718252649
 C         -6.4171611788        0.3657687434       -0.8619850708
 C         -5.6653931216        1.6911376744       -0.9864982105
 H         -4.6065434001        1.4867727175       -1.1621306280
 H         -6.0457975539        2.1986610666       -1.8756303607
 C         -5.8056704241        2.6175418795        0.2295209848
 H         -6.0029110352        3.6319769042       -0.1235193317
 H         -6.6620077467        2.3119027942        0.8317873385
 C         -4.5626304539        2.6898405895        1.1185190512
 H         -4.6887343286        3.5247840935        1.8132060698
 H         -3.6837115260        2.9062686114        0.5052895076
 C         -4.2685032985        1.4385740433        1.9554023888
 H         -3.4813392401        1.6952719363        2.6706486053
 H         -5.1613499312        1.1518449253        2.5150287428
 H         -7.4909013312        0.5574150717       -0.8206280316
 H         -6.2117432788       -0.2285934514       -1.7551904001
 H         -6.4165435981        0.0068481495        1.2736152617
 H         -6.4432775639       -1.4610297951        0.2773962173
 O         -4.0463268606       -1.6333888709       -0.2093818429
 C         -2.6800408927       -1.8834272294       -0.2980070256
 O         -2.4028827994       -2.8778814107       -0.9911967246
 O         -1.5267224466        0.8392295102        1.7927601236
 C         -0.3071599826       -1.2278538196        0.3526075262
 C          0.3253286821       -0.5629368045       -0.8435461058
 C         -0.1628959378       -0.7593838441       -2.1315106344
 C          0.4516056497       -0.1497180583       -3.2103282927
 C          1.5660188015        0.6502570946       -3.0307484773
 C          2.0642637607        0.8518484352       -1.7475766310
 C          1.4350765216        0.2506879868       -0.6650636994
 H          1.7952667644        0.4464649552        0.3324549209
 N          3.2132291149        1.6154082615       -1.5528381338
 S          3.8668267123        2.0194772951       -0.0822021484
 O          2.9068726805        2.6703872356        0.7767092102
 O          5.0359218685        2.7979913840       -0.4291848967
 C          4.3708455384        0.4612851581        0.6184346316
 C          4.0178584164        0.1532458781        1.9170454715
 C          4.4155751562       -1.0623577902        2.4508523132
 C          5.1567629092       -1.9443445542        1.6798187807
 C          5.5065579958       -1.6190038490        0.3780051895
 C          5.1125824119       -0.4046599819       -0.1605594085
 H          5.3679544250       -0.1192267744       -1.1674847433
 H          6.0806367364       -2.3092565637       -0.2186302242
 H          5.4606401222       -2.8916111086        2.0961317821
 H          4.1405113219       -1.3167239309        3.4618908888
 H          3.4298392555        0.8627610850        2.4786054814
 H          3.6037212632        2.0895576876       -2.3500846179
 H          2.0465923780        1.1188883619       -3.8755663883
 H          0.0610627059       -0.3044442465       -4.2049844123
 H         -1.0216804894       -1.3966795470       -2.2772367562
 H          0.0566713870       -0.6971574921        1.2473840265
 C          0.1104765709       -2.6859795482        0.4946892111
 C          0.7348931483       -3.4813914684       -0.6081358710
 C          1.5666839344       -3.0428123887        0.5572365878
 H          1.8864311624       -3.7823549697        1.2750966800
 H          2.2798728689       -2.2479969055        0.3939806957
 H          0.4565527933       -4.5207467286       -0.6905986584
 H          0.8920220073       -2.9985835583       -1.5592805294
 H         -0.5533625815       -3.2292625952        1.1597319165
