  62
        -98.94833587
 C          1.3048198148        1.5638236606        0.2053390943
 C          1.6597037630        0.6171313523        1.1961417104
 C          2.9199356244       -0.0993522016        0.9782252004
 C          3.6530443957        0.1609868934       -0.1197292333
 C          4.9863929921       -0.4483898232       -0.4595792940
 C          4.8953047122       -1.8084761406       -1.1638287410
 C          4.4640472245       -2.9725358169       -0.2712354561
 H          4.6529546549       -3.8923430500       -0.8283555760
 H          5.0899913313       -2.9975267965        0.6215350428
 C          2.9848021745       -2.9402909826        0.1361656162
 H          2.4287864056       -2.2713868083       -0.5253834663
 H          2.5432678597       -3.9312901205        0.0067083220
 C          2.7259467372       -2.5221625862        1.5832779224
 H          3.1311724532       -3.2765357536        2.2621321230
 H          1.6421058838       -2.4872413579        1.7237646160
 C          3.3100654334       -1.1559631766        1.9667680061
 H          4.3951454849       -1.2222050272        2.0475893675
 H          2.9021529170       -0.8702133804        2.9396632441
 H          5.8850683438       -2.0340841449       -1.5677980187
 H          4.2033198120       -1.7217570159       -2.0049099608
 H          5.4848276519        0.2536452983       -1.1316538196
 H          5.5844092514       -0.5468882985        0.4469385151
 O          3.2642265340        1.0583948824       -1.0639278426
 C          2.0674224006        1.7523982087       -0.9466163214
 O          1.8114184547        2.4966458450       -1.9124188556
 O          0.9575763916        0.3889609474        2.2185903916
 C          0.0045094793        2.3301734108        0.3588306649
 C         -0.9903761232        1.8902642279       -0.6877371144
 C         -1.8306154054        2.7608088341       -1.3701159105
 C         -2.7414434059        2.2726069217       -2.2916526848
 C         -2.8593420628        0.9149044884       -2.5283619438
 C         -2.0275953392        0.0353445299       -1.8447566484
 C         -1.0974130277        0.5307475747       -0.9463835239
 H         -0.4362298300       -0.1601113535       -0.4469472723
 N         -2.1149644685       -1.3530050875       -2.0299055337
 S         -1.9151751788       -2.3501485736       -0.6978398302
 O         -0.5199335100       -2.4670856446       -0.3620524157
 O         -2.5759701137       -3.5824685952       -1.0754560753
 C         -2.8351426352       -1.5499881448        0.6051770113
 C         -4.2118509804       -1.5403586990        0.4818279295
 C         -4.9701699275       -0.8862474035        1.4377081093
 C         -4.3410900273       -0.2491588581        2.4970063882
 C         -2.9604640521       -0.2734457604        2.6101686993
 C         -2.1948686017       -0.9289160827        1.6574959187
 H         -1.1181129422       -0.9488099051        1.7279606952
 H         -2.4627120080        0.2187297247        3.4306777499
 H         -4.9288673998        0.2668619305        3.2397176044
 H         -6.0447873373       -0.8713622936        1.3534472524
 H         -4.6630846184       -2.0573609997       -0.3495238016
 H         -2.8770969319       -1.6575573942       -2.6174154626
 H         -3.5789821590        0.5374538813       -3.2383922983
 H         -3.3794121323        2.9603857153       -2.8254332199
 H         -1.7671914641        3.8208001001       -1.1872657102
 H         -0.3954918134        2.0240752859        1.3381902341
 C          0.2480643046        3.8238995129        0.3803474800
 C         -0.6564976525        4.7233317643        1.1673100226
 C          0.7373629568        4.4568443193        1.6476468124
 H          1.4700831582        5.2467852333        1.5794936940
 H          0.8708174148        3.8123702868        2.5043979002
 H         -0.8811163022        5.7023298851        0.7717332493
 H         -1.4724589394        4.2651177901        1.7052928780
 H          0.6571928067        4.1931927649       -0.5529155570
