  62
        -98.93474517
 C         -2.4508102727       -1.2839321635        0.1441797079
 C         -3.3192006944       -0.6294327818        1.0543799053
 C         -4.3125429332        0.3003577324        0.4910644025
 C         -4.3520877141        0.4905460414       -0.8405411452
 C         -5.2684532728        1.3330806207       -1.7030519507
 C         -6.1657783123        2.3981689956       -1.0783360892
 C         -5.4207610795        3.5914618360       -0.4808926071
 H         -4.9786694160        4.1684552033       -1.2971329874
 H         -6.1489031153        4.2314344704        0.0220748426
 C         -4.3012200939        3.2476760955        0.4985893068
 H         -3.8542288421        4.1861465764        0.8376260555
 H         -3.5186603786        2.6886969197       -0.0188986053
 C         -4.7328328279        2.4652685441        1.7373598741
 H         -3.8771111015        2.4275490559        2.4167687439
 H         -5.5401103218        2.9966290495        2.2450020732
 C         -5.1838439348        1.0167065151        1.4821933499
 H         -5.0943757062        0.4647793940        2.4223207921
 H         -6.2266667683        0.9746587359        1.1769239393
 H         -6.8041150684        2.7766831818       -1.8813665036
 H         -6.8231703641        1.9498496620       -0.3393288922
 H         -5.9012397340        0.6216914170       -2.2453246157
 H         -4.6233834751        1.8025505171       -2.4527303377
 O         -3.4996686181       -0.1647098973       -1.6804876326
 C         -2.5300874899       -1.0485507517       -1.2271954994
 O         -1.8326511824       -1.5274436294       -2.1421363081
 O         -3.2751391922       -0.8271380734        2.2978471209
 C         -1.4411167960       -2.2480804108        0.7406586839
 C         -0.1087479073       -1.5842582526        0.9787447285
 C          0.5446324786       -1.7072541928        2.1991657496
 C          1.7800748606       -1.1158080721        2.3989682251
 C          2.3865478918       -0.3895823055        1.3898486814
 C          1.7413620590       -0.2592212592        0.1668274977
 C          0.5037309736       -0.8542133962       -0.0305755945
 H          0.0129209799       -0.7615975058       -0.9887638962
 N          2.3442225496        0.4855080688       -0.8640750464
 S          3.9083387981        0.0559771610       -1.3070818326
 O          4.0556535421        0.5017492561       -2.6751149036
 O          4.1606293833       -1.3441483668       -1.0551901908
 C          4.9372154363        1.0609388672       -0.2574182165
 C          4.7504918747        2.4292597676       -0.2827007150
 C          5.5485551379        3.2281473729        0.5203777826
 C          6.5161704829        2.6488702638        1.3280228637
 C          6.6935675833        1.2738653669        1.3392005495
 C          5.8977070627        0.4687023341        0.5389496544
 H          5.9949799898       -0.6050205804        0.5188544517
 H          7.4465579621        0.8257407099        1.9673471512
 H          7.1356027582        3.2732566394        1.9522973694
 H          5.4134538680        4.2977799918        0.5143339033
 H          3.9894977682        2.8385629332       -0.9261169446
 H          1.7607393373        0.5650809067       -1.6853326852
 H          3.3483295435        0.0732161667        1.5391539717
 H          2.2761548924       -1.2196355927        3.3517093658
 H          0.0733136733       -2.2637811902        2.9959399682
 H         -1.8580888405       -2.5107288173        1.7257735665
 C         -1.3145201801       -3.5409730905       -0.0552400835
 C         -0.1041896508       -3.9166464970       -0.8515790796
 C         -0.4101530813       -4.6370829528        0.4252795471
 H         -0.7596273618       -5.6570599161        0.3757172185
 H          0.2192349310       -4.4240828821        1.2761279327
 H         -0.2631491242       -4.4248686788       -1.7906947836
 H          0.7366276857       -3.2399975710       -0.8684540775
 H         -2.2686823903       -3.8486747526       -0.4719670561
