  62
        -98.94298666
 C          1.8126537097        1.3410157203       -0.0502477884
 C          3.1427061596        1.2028550999        0.4283162417
 C          3.9388781194        0.1146901699       -0.1528986085
 C          3.3719529294       -0.6998533397       -1.0608580189
 C          4.0399003892       -1.8926877996       -1.6796031392
 C          3.7822517789       -3.1643182298       -0.8587435797
 C          4.0499453388       -3.0006393504        0.6373774704
 H          3.3277896289       -2.2952213004        1.0548478406
 H          3.8634152385       -3.9678529905        1.1088591501
 C          5.4709339288       -2.5317766407        0.9800924907
 H          5.8500393086       -3.1360724211        1.8069624106
 H          6.1323410289       -2.6980704906        0.1288718007
 C          5.5674865691       -1.0690261809        1.4172938312
 H          4.8418207590       -0.8743242010        2.2110276112
 H          6.5631979590       -0.9042620112        1.8377644614
 C          5.3613940294       -0.0275619505        0.3102676916
 H          6.0191097094       -0.2515137003       -0.5323563085
 H          5.6444779595        0.9478536793        0.7169544919
 H          2.7378264689       -3.4560117896       -0.9890143299
 H          4.4099572788       -3.9636437598       -1.2569179999
 H          3.6369596293       -2.0311219592       -2.6844102293
 H          5.1096715893       -1.7054969698       -1.7517984190
 O          2.0940627495       -0.5496393693       -1.4856111990
 C          1.2812712596        0.4729268907       -1.0061830487
 O          0.1473392296        0.4796266011       -1.5177090388
 O          3.6414976796        1.9577658195        1.3047556920
 C          0.9668775198        2.4398565102        0.5726038419
 C         -0.3422892904        1.8576905803        1.0371238716
 C         -0.3959286406        1.1466156099        2.2322463413
 C         -1.5708263508        0.5454766400        2.6445190110
 C         -2.7095313107        0.6188560105        1.8610973409
 C         -2.6578786404        1.3089630809        0.6571637812
 C         -1.4879855803        1.9446135908        0.2633529815
 H         -1.4586430201        2.4714274311       -0.6773902583
 N         -3.7896439703        1.3477271414       -0.1730035189
 S         -4.7229277406       -0.0306902584       -0.3114465095
 O         -5.3208128904        0.0478181321       -1.6269938395
 O         -5.6576292807       -0.0848410686        0.7876928604
 C         -3.6276782008       -1.4401895187       -0.2144857499
 C         -4.0376007111       -2.5347918788        0.5217989097
 C         -3.2188712013       -3.6503432590        0.5850382194
 C         -2.0037187313       -3.6523677090       -0.0827821904
 C         -1.6070294910       -2.5456714488       -0.8161817600
 C         -2.4247631808       -1.4289805087       -0.8911241097
 H         -2.1018111206       -0.5628040685       -1.4460340494
 H         -0.6580974509       -2.5273636188       -1.3292004799
 H         -1.3616634514       -4.5176783891       -0.0299059007
 H         -3.5278033416       -4.5111285191        1.1561063391
 H         -4.9839625312       -2.4856799388        1.0359291596
 H         -3.6143023602        1.7592245716       -1.0780802188
 H         -3.6322323608        0.1491271505        2.1622183507
 H         -1.6004554110        0.0051028897        3.5783377708
 H          0.4995548293        1.0641760196        2.8325369214
 H          1.5395551098        2.7524628798        1.4603857921
 C          0.7920100301        3.6831809705       -0.2865580877
 C          1.9421702903        4.2213267506       -1.0827523174
 C          0.7463438703        3.6536921011       -1.7837531477
 H          0.0760494404        4.3373128714       -2.2850059075
 H          0.8426240701        2.6999308712       -2.2777748280
 H          2.0991749905        5.2890405506       -1.1092468170
 H          2.8555673902        3.6444129204       -1.0851277075
 H          0.1570158602        4.4174217705        0.2007232825
