  62
        -98.93813390
 C          1.9765644530        1.3900692153        0.3032723067
 C          2.6255990293        0.7199243620       -0.7605895854
 C          3.7797946297       -0.1184645873       -0.3914847247
 C          4.1519454585       -0.2036684820        0.8971177414
 C          5.3141687484       -0.9628877742        1.4863039142
 C          5.5501022232       -2.3943524892        0.9824820948
 C          4.2832677477       -3.1573870252        0.5679733931
 H          4.2794651653       -4.1319921526        1.0599372986
 H          3.3938390659       -2.6211864024        0.9039835191
 C          4.1955580488       -3.3948027869       -0.9418424127
 H          5.1800820023       -3.6977576452       -1.3049577273
 H          3.5095370537       -4.2250017294       -1.1273304451
 C          3.7013076875       -2.2078651502       -1.7685321578
 H          2.6351348878       -2.0455044174       -1.5854606423
 H          3.8057535625       -2.4680364555       -2.8246236404
 C          4.4260868312       -0.8757913955       -1.5151763558
 H          5.4877034757       -1.0318574277       -1.3393975632
 H          4.3059954579       -0.2549907746       -2.4070834718
 H          6.2409355428       -2.3749551624        0.1407449913
 H          6.0515367492       -2.9339017261        1.7876548587
 H          6.2217582546       -0.3737748570        1.3268953848
 H          5.1262859390       -0.9797427430        2.5625156350
 O          3.4913013524        0.4556374810        1.8912844017
 C          2.3883840272        1.2499812016        1.6265074699
 O          1.8658328796        1.7611361309        2.6386846655
 H         -0.0768919419       -0.1402784517        0.7684601722
 C         -0.6256643411        0.2067936279       -0.0991097963
 C         -0.3167675749        1.4493668694       -0.6399773898
 C         -1.0420412038        1.8896792111       -1.7388781726
 C         -2.0225521069        1.0884324582       -2.2995231789
 C         -2.3077767637       -0.1580817352       -1.7751107309
 C         -1.6032950118       -0.5989055817       -0.6612510150
 N         -1.8987220603       -1.8558968870       -0.1068571916
 S         -3.5102550068       -2.2641377584        0.0882228580
 O         -3.5351269551       -3.1845542681        1.2034470495
 O         -4.0360581328       -2.7703386063       -1.1550365446
 C         -4.3339608436       -0.7395686093        0.5138233725
 C         -5.3324268623       -0.2445567195       -0.2999303926
 C         -5.9370420335        0.9563105484        0.0358133091
 C         -5.5312805946        1.6398595198        1.1712374983
 C         -4.5287218155        1.1277511066        1.9808773206
 C         -3.9227597203       -0.0735503784        1.6514691500
 H         -3.1433230124       -0.4991037800        2.2636161772
 H         -4.2132321272        1.6600584601        2.8640032908
 H         -5.9982621284        2.5771328740        1.4293965507
 H         -6.7183036440        1.3559074439       -0.5903077276
 H         -5.6141647912       -0.8070295705       -1.1750881026
 H         -1.3603991544       -2.0803237589        0.7164961787
 H         -3.0532903986       -0.8017011052       -2.2130627473
 H         -2.5690754982        1.4383448840       -3.1617054963
 H         -0.8326505699        2.8566233446       -2.1651444737
 C          0.7686062589        2.2646410912        0.0216034884
 H          0.3964193295        2.5931956511        1.0032476861
 C          1.1808194781        3.4845761959       -0.7756733506
 C          0.4299470749        4.7728779348       -0.6287556296
 C          1.8073584603        4.6386387289       -0.0543918936
 H          2.6213234724        5.1643096773       -0.5306554253
 H          1.9119681129        4.5543560806        1.0178418360
 H          0.2998212540        5.3963959828       -1.5003718445
 H         -0.4036668226        4.7909662420        0.0566933894
 H          1.5788142710        3.2282886691       -1.7506445325
 O          2.2664534986        0.8182949026       -1.9618168296
