  62
        -98.93616521
 C         -1.5456934569       -1.3168772458        0.4348846069
 C         -1.8257718439       -0.1030808850        1.1300771842
 C         -3.1242292976        0.5281152718        0.8779738763
 C         -3.9959323216       -0.0593729871        0.0404719937
 C         -5.3824106550        0.4234519981       -0.2874661635
 C         -5.4299160142        1.4865709733       -1.3932153208
 C         -4.9152410575        2.8680517050       -0.9874537842
 H         -5.2060792194        3.5627485681       -1.7779858903
 H         -5.4176587680        3.1871208963       -0.0736683717
 C         -3.3940273794        2.9446991343       -0.7963663185
 H         -2.9230116084        2.0810362829       -1.2713346195
 H         -3.0104951909        3.8350839257       -1.2993491172
 C         -2.9389270195        3.0157180001        0.6613398483
 H         -1.8471768719        3.0195893943        0.6750339555
 H         -3.2899407106        3.9473967264        1.1106870214
 C         -3.4136923478        1.8452276397        1.5320434782
 H         -2.8675168149        1.8748416373        2.4780309869
 H         -4.4792944808        1.9384192760        1.7418745387
 H         -4.8610452583        1.1229860129       -2.2520553961
 H         -6.4725642522        1.5866989168       -1.7038070435
 H         -5.9439517747       -0.4503620067       -0.6253729365
 H         -5.8563517206        0.8130287980        0.6141776986
 O         -3.7009864118       -1.2129307020       -0.6063447949
 C         -2.4738535599       -1.8516909349       -0.4625478552
 O         -2.3833013106       -2.8582878780       -1.1908977209
 O         -1.0224061660        0.4309460895        1.9402932705
 C         -0.1869795584       -1.9211040775        0.7508439781
 C          0.8299794667       -1.8209080179       -0.3643614374
 C          0.5976428701       -2.3055764296       -1.6462708992
 C          1.5754826627       -2.2028281723       -2.6197752681
 C          2.7973357965       -1.6174812566       -2.3408088872
 C          3.0465359154       -1.1425206357       -1.0582832917
 C          2.0654419472       -1.2511331548       -0.0827674368
 H          2.2776168289       -0.8938526925        0.9132211451
 N          4.2839300874       -0.5693978415       -0.7395750417
 S          4.4276945117        0.6000789102        0.4402386132
 O          5.6834622030        1.2521018494        0.1374106029
 O          4.3310672393        0.0000003638        1.7472254131
 C          3.0783373560        1.7359424951        0.1759422266
 C          2.9932763151        2.3773750408       -1.0444280832
 C          1.9515945750        3.2631511699       -1.2632301830
 C          1.0179445698        3.4929181253       -0.2635246527
 C          1.1208140830        2.8464801115        0.9577967887
 C          2.1599143118        1.9577291609        1.1803831614
 H          2.2618017743        1.4323054549        2.1163376601
 H          0.3926320467        3.0093361785        1.7361857798
 H          0.2060871014        4.1822597226       -0.4373264925
 H          1.8676689431        3.7709193922       -2.2106514038
 H          3.7411755108        2.1859330858       -1.7966185529
 H          4.9042283578       -0.4138107904       -1.5195719257
 H          3.5563363101       -1.5368274113       -3.1037462786
 H          1.3800782085       -2.5818929856       -3.6115384221
 H         -0.3533103145       -2.7578603470       -1.8753466379
 H          0.1815233171       -1.2673624715        1.5580177327
 C         -0.1477500835       -3.3278996897        1.3425493346
 C         -1.3247957142       -3.9508930738        2.0280183965
 C         -0.7996213984       -4.5393724687        0.7529858146
 H         -0.2609508151       -5.4745588371        0.8035847264
 H         -1.3929873257       -4.4164424264       -0.1368927361
 H         -1.1651830601       -4.4785787268        2.9567183856
 H         -2.2651586406       -3.4199208263        1.9812803548
 H          0.8177106531       -3.5052996783        1.8110364418
