  62
        -98.94132715
 C          0.6968428797        1.6584997195        0.0667412296
 C          1.1638316402        0.6204199299       -0.7778264806
 C          2.3446093304       -0.1089283698       -0.2845374107
 C          2.8127735502        0.1191043900        0.9538973994
 C          3.9730851903       -0.5794989897        1.6082885494
 C          5.3377188202        0.0366171109        1.2707215497
 C          5.8277170904       -0.2156588185       -0.1557379103
 H          6.8764221103        0.0860643719       -0.1923693101
 H          5.7888599208       -1.2840941685       -0.3693659606
 C          5.0556295503        0.5549674215       -1.2359249302
 H          4.4946790499        1.3696201012       -0.7719429900
 H          5.7622080302        1.0113278620       -1.9330571899
 C          4.0943293907       -0.3008457486       -2.0617275905
 H          4.6620464710       -1.0360795582       -2.6363403907
 H          3.5777285805        0.3519825114       -2.7703413504
 C          3.0332533609       -1.0405157792       -1.2348571909
 H          2.2770932711       -1.4351926793       -1.9171775411
 H          3.4906315111       -1.8690944792       -0.6966765311
 H          5.2909437497        1.1124864008        1.4548554600
 H          6.0686703802       -0.3870856691        1.9632335797
 H          3.8173032902       -0.4990718501        2.6859356294
 H          3.9710625908       -1.6330734297        1.3307977090
 O          2.2496754797        1.0349781896        1.7871804496
 C          1.2286499195        1.8572527793        1.3446771497
 O          0.8713297691        2.7189576489        2.1730683900
 H         -1.4301825797        0.0985113788       -0.2363320711
 C         -2.0747885600        0.7907790284        0.2831452090
 C         -1.7252885905        2.1319414385        0.3432116295
 C         -2.5664655909        3.0164317480        1.0073230296
 C         -3.7360887608        2.5653872574        1.5926335094
 C         -4.0862009903        1.2292069273        1.5251942589
 C         -3.2463928899        0.3350924978        0.8693624287
 N         -3.5456097594       -1.0312399223        0.8348694183
 S         -2.9867850389       -2.0267100017       -0.3796867819
 O         -3.0441539490       -1.3801827014       -1.6690383117
 O         -3.7894839185       -3.2260658220       -0.2512090224
 C         -1.3123841688       -2.4391068112        0.0664026582
 C         -0.8515646790       -2.2280676314        1.3500324983
 C          0.4277029911       -2.6475308411        1.6789843183
 C          1.2123785814       -3.2841094605        0.7313382382
 C          0.7366973817       -3.4866384703       -0.5543548819
 C         -0.5356573284       -3.0566671207       -0.8931514219
 H         -0.9394719283       -3.1822723505       -1.8852138420
 H          1.3501217119       -3.9775587698       -1.2927517220
 H          2.1993697215       -3.6270685502        0.9983057882
 H          0.8044425709       -2.4780776512        2.6751633684
 H         -1.4824027993       -1.7340441319        2.0708482783
 H         -4.4496728793       -1.3034768827        1.1890977081
 H         -4.9960558902        0.8744152168        1.9843867387
 H         -4.3819231011        3.2599599670        2.1078602295
 H         -2.2898241313        4.0580203181        1.0770650900
 C         -0.4414866106        2.6023002392       -0.2899626302
 H         -0.1836427810        3.5668846391        0.1786187001
 C         -0.5860024805        2.8558217396       -1.7826918702
 C         -1.6207074002        2.1958377495       -2.6379999305
 C         -1.7478774907        3.6499898793       -2.3031137001
 H         -1.5695954309        4.3769452496       -3.0810951398
 H         -2.5148301209        3.9340950088       -1.5984494801
 H         -2.2986908700        1.4908781691       -2.1810320308
 H         -1.3308082999        1.9132636399       -3.6387335405
 H          0.3752322695        3.0369700401       -2.2532403000
 O          0.6562277104        0.3033589201       -1.8829968408
