  62
        -98.93525502
 C         -2.2745399703       -1.0743120160       -0.4349901576
 C         -3.5892742166       -1.0449981079        0.0859578896
 C         -4.4333266785        0.1082573820       -0.2811599389
 C         -3.9072184559        1.0700014095       -1.0623926299
 C         -4.5504847819        2.3481917208       -1.5315620506
 C         -4.6292515002        3.4144820605       -0.4277470388
 C         -5.1014831505        2.9002868049        0.9295044119
 H         -4.4262958083        2.1121529646        1.2682663176
 H         -5.0187206560        3.7244303788        1.6431113822
 C         -6.5404381688        2.3908548431        0.9677640532
 H         -7.2123885488        3.1918419733        0.6518475696
 H         -6.7720855043        2.1551459038        2.0096130858
 C         -6.8329675292        1.1474114393        0.1249248250
 H         -6.9387375017        1.3999821832       -0.9266375945
 H         -7.8015535895        0.7557170479        0.4488483423
 C         -5.8260486515        0.0143969525        0.2944425756
 H         -5.6990267135       -0.1964725968        1.3624261688
 H         -6.2560284102       -0.9011833852       -0.1292178515
 H         -3.6301370815        3.8368972082       -0.2938665286
 H         -5.2906134484        4.2134389582       -0.7673790601
 H         -3.9262329552        2.7328893439       -2.3410851605
 H         -5.5349614303        2.1427113878       -1.9412797132
 O         -2.6254363663        1.0100906455       -1.5247627391
 C         -1.7802317202       -0.0450020924       -1.2348268954
 O         -0.6488314961        0.0512057473       -1.7491259404
 O         -4.0500504312       -1.9493089732        0.8338673935
 C         -1.3792094679       -2.2469818688       -0.0710631998
 C         -0.2629722412       -1.7310989121        0.8023543538
 C         -0.5292612084       -1.4476452961        2.1394494949
 C          0.4473254963       -0.9075776103        2.9542801918
 C          1.7088752655       -0.6341789734        2.4538188877
 C          1.9807924826       -0.9044245697        1.1200539181
 C          1.0011324376       -1.4591131168        0.3054172649
 H          1.2207927038       -1.6488849101       -0.7331685340
 N          3.2617587900       -0.6383847984        0.5956931603
 S          3.9616421193        0.8479150261        0.9911269566
 O          4.5073970276        0.7521970122        2.3227877798
 O          3.0229519807        1.9263945930        0.7730122936
 C          5.2872511425        0.9168556377       -0.1972397546
 C          5.0637217796        1.5243078071       -1.4182880747
 C          6.0883055265        1.5488874529       -2.3514595827
 C          7.3099631320        0.9652012078       -2.0507407339
 C          7.5185000408        0.3585062690       -0.8211091169
 C          6.4990211281        0.3317907124        0.1171454505
 H          6.6160462427       -0.1199698677        1.0881593738
 H          8.4703455259       -0.0922437321       -0.5911049613
 H          8.1046774523        0.9860964050       -2.7795980008
 H          5.9290240897        2.0215618916       -3.3073720715
 H          4.1000004587        1.9709810552       -1.6072586442
 H          3.2783835145       -0.7680069090       -0.4076559792
 H          2.4758964060       -0.1987147773        3.0735205931
 H          0.2266507038       -0.6919945522        3.9891920189
 H         -1.5197801960       -1.6438075349        2.5265987931
 H         -2.0068819629       -2.9144378644        0.5347217550
 C         -0.9084496993       -2.9982556287       -1.2982029285
 C         -0.3097395387       -4.3630191103       -1.1396844816
 C         -1.6682951540       -4.2069786561       -1.7520860295
 H         -1.7796864997       -4.3758780889       -2.8126600594
 H         -2.5294938927       -4.5019347766       -1.1708064208
 H          0.5130792119       -4.6434619177       -1.7792263841
 H         -0.2466095554       -4.7637421141       -0.1394045643
 H         -0.5056439472       -2.3509920605       -2.0679780177
