  62
        -98.94348240
 C          1.9577934048        0.8003470246        0.5250868667
 C          2.1435458031        0.1426370362       -0.7143201657
 C          2.4329713047       -1.2956859885       -0.6378056622
 C          2.4490184310       -1.9019206185        0.5631329406
 C          2.7660051128       -3.3517406604        0.7878812699
 C          4.2667468728       -3.5629063829        1.0334309686
 C          5.1628642441       -2.8767659589        0.0024072091
 H          5.0505829498       -1.7944753775        0.0987548325
 H          6.1966940161       -3.1176578853        0.2588783396
 C          4.8867528260       -3.2870670761       -1.4507384895
 H          5.8403003198       -3.4732175532       -1.9491502333
 H          4.3220571161       -4.2197135063       -1.4709626632
 C          4.1503633284       -2.2319157693       -2.2781858666
 H          4.6620281621       -1.2708420824       -2.1851500143
 H          4.1989117405       -2.5290908421       -3.3290307962
 C          2.6705989461       -2.0236152708       -1.9310194377
 H          2.1510264786       -2.9841454763       -1.9318522059
 H          2.2293323711       -1.3948058497       -2.7100690073
 H          4.5139363768       -3.1664176405        2.0209369293
 H          4.4675076698       -4.6357593886        1.0375511155
 H          2.2091438563       -3.6914075683        1.6630209653
 H          2.4425929855       -3.9251748322       -0.0787180183
 O          2.2236480996       -1.2443737303        1.7303931203
 C          1.9737296351        0.1177235733        1.7396727108
 O          1.7886007735        0.6002137283        2.8777462268
 O          2.0733134879        0.7265813280       -1.8278620148
 C          1.6420988394        2.2833530143        0.5510286907
 C          0.3712679776        2.5660971921       -0.2158999966
 C          0.1827957776        3.7216199892       -0.9637597602
 C         -1.0156117677        3.9413831176       -1.6208915264
 C         -2.0447528980        3.0217371045       -1.5485687150
 C         -1.8635152558        1.8577961056       -0.8076696172
 C         -0.6688491597        1.6487701304       -0.1397004747
 H         -0.5441777743        0.7487743071        0.4457838046
 N         -2.8710663847        0.8807591341       -0.7612548771
 S         -2.9061217929       -0.2598133362        0.4740854078
 O         -2.8750374096        0.3906422230        1.7662914869
 O         -1.8888327208       -1.2520109143        0.2270214139
 C         -4.5178589466       -0.9660765078        0.1860338480
 C         -4.6662466864       -1.8768334519       -0.8431717005
 C         -5.9222204826       -2.4063079234       -1.0932915101
 C         -7.0031111981       -2.0187770984       -0.3149551920
 C         -6.8384662877       -1.1061866375        0.7160114466
 C         -5.5850460393       -0.5714570189        0.9703664112
 H         -5.4062569059        0.1351989319        1.7647512464
 H         -7.6793399278       -0.8092865195        1.3217484743
 H         -7.9792392751       -2.4331934226       -0.5114316537
 H         -6.0530607605       -3.1181493990       -1.8922189045
 H         -3.7951957148       -2.1538808965       -1.4140818081
 H         -3.7898185651        1.2350069329       -0.9871097134
 H         -2.9759420223        3.1927254517       -2.0662004387
 H         -1.1497380413        4.8439641276       -2.1975446560
 H          0.9747603710        4.4493792648       -1.0322554434
 H          1.4590761457        2.5363255279        1.6070615410
 C          2.8298809089        3.0836769566        0.0547336368
 C          3.1245261845        4.4393857603        0.6208068783
 C          4.0016635828        3.2755994699        0.9685630280
 H          4.9958659898        3.2317694278        0.5500252148
 H          3.9264616505        2.8545354946        1.9611151077
 H          3.5214339894        5.1976529762       -0.0372468008
 H          2.4626123054        4.8173582792        1.3854883837
 H          3.0361294359        2.9078881318       -0.9947530907
