  62
        -98.94504145
 C         -1.1559798766       -1.8420742151       -0.6744950580
 C         -0.4785898368       -2.3548774884        0.4614637000
 C          0.9505846414       -2.6659792853        0.2662392582
 C          1.5232002982       -2.4608885654       -0.9321675800
 C          2.9708250458       -2.6935027916       -1.2519617975
 C          3.8134249898       -1.4317708947       -1.0223781360
 C          3.6090299505       -0.7847156548        0.3475017826
 H          4.3023846151        0.0569518375        0.4173828596
 H          2.6021225160       -0.3669331025        0.4109278726
 C          3.8243269010       -1.7259020508        1.5402454538
 H          4.4091360231       -1.1997933829        2.2977604767
 H          4.4009108696       -2.5993281774        1.2312775737
 C          2.5288626380       -2.1790086906        2.2173532569
 H          1.8996710797       -1.3067250956        2.4143284599
 H          2.7858246123       -2.6221665809        3.1838473657
 C          1.6998748179       -3.2153872289        1.4470179145
 H          2.3411902698       -4.0462139189        1.1422638325
 H          0.9376701383       -3.6021087848        2.1303284443
 H          4.8652655599       -1.6973198318       -1.1440897056
 H          3.5563803263       -0.6951842247       -1.7870683090
 H          3.3451458644       -3.5088176260       -0.6357944401
 H          3.0451029399       -2.9807850817       -2.3023955554
 O          0.8380528767       -1.9845235278       -2.0034623874
 C         -0.5014621148       -1.6492412367       -1.8944976255
 O         -0.9997133862       -1.1990606929       -2.9456336553
 H         -1.2441971546        0.1020599108        1.1376956609
 C         -1.8637700958        0.7102773858        0.4959134400
 C         -2.6579282547        0.1097641741       -0.4713745872
 C         -3.4618907567        0.9146726752       -1.2695227047
 C         -3.4638991531        2.2884943247       -1.1052536120
 C         -2.6431257215        2.8854869827       -0.1654679137
 C         -1.8310569980        2.0903167960        0.6356215428
 N         -0.9692189506        2.6675862839        1.5855758547
 S          0.6385568154        2.2008030283        1.6275400580
 O          0.7492476974        0.8347636702        2.0625809760
 O          1.2774948487        3.1949281197        2.4616514912
 C          1.2145474238        2.3713099496       -0.0510155652
 C          1.8464071816        3.5401363667       -0.4282726354
 C          2.2559777234        3.6861834006       -1.7437529404
 C          2.0170507088        2.6721176871       -2.6595815086
 C          1.3769325185        1.5066461430       -2.2674055710
 C          0.9746564828        1.3525276973       -0.9505155009
 H          0.4770251868        0.4539399391       -0.6208063048
 H          1.1737522483        0.7139178506       -2.9714604849
 H          2.3306849632        2.7870981107       -3.6851365975
 H          2.7568424917        4.5894810260       -2.0527129155
 H          2.0150938277        4.3001364216        0.3174181725
 H         -1.0349542863        3.6741939119        1.6418154900
 H         -2.6256944510        3.9587659707       -0.0523659578
 H         -4.0951760281        2.9028653433       -1.7286641802
 H         -4.0732706155        0.4581059914       -2.0336479018
 C         -2.6078802021       -1.3857246299       -0.6681039827
 H         -2.9862196588       -1.5916141560       -1.6830210713
 C         -3.4972626402       -2.1430930374        0.3050259453
 C         -3.9842329170       -1.5608697873        1.5940876394
 C         -4.9390353971       -1.7567221232        0.4570155674
 H         -5.6775748362       -2.5404600404        0.5304846616
 H         -5.2780111820       -0.8751399384       -0.0656971873
 H         -3.6833372609       -0.5553164780        1.8452570290
 H         -4.0419936038       -2.2182963296        2.4480677826
 H         -3.2745456353       -3.2046491560        0.3134610079
 O         -1.0154549193       -2.5644167377        1.5781845965
