  62
        -98.94296043
 C         -2.0153019536       -0.4761723811        0.0765900827
 C         -2.6726397147        0.7815375067        0.1306368596
 C         -4.0401040616        0.8274924913       -0.3959571975
 C         -4.5905640335       -0.2855845711       -0.9130153352
 C         -5.9649758116       -0.3996589148       -1.5143664571
 C         -7.0809439023       -0.6220105868       -0.4844590938
 C         -7.4322370944        0.5980606773        0.3678155853
 H         -7.6223662050        1.4522600857       -0.2828089979
 H         -8.3656859264        0.3690142965        0.8857757141
 C         -6.3685971661        0.9695979857        1.4104970940
 H         -5.6926029507        0.1243647251        1.5589861092
 H         -6.8518366229        1.1649044953        2.3705221680
 C         -5.5419775139        2.2071391773        1.0605266241
 H         -4.7978823365        2.3565047050        1.8472658896
 H         -6.1892331569        3.0868136137        1.0391919627
 C         -4.8006424100        2.1138425097       -0.2796097495
 H         -5.5037899166        2.2159559161       -1.1061106053
 H         -4.0786235671        2.9326860931       -0.3304723419
 H         -6.7951576987       -1.4511248079        0.1668186273
 H         -7.9755340874       -0.9238833921       -1.0339315932
 H         -5.9397699773       -1.2606868532       -2.1856609496
 H         -6.1825229213        0.4929445752       -2.1016349332
 O         -3.9248061426       -1.4667825263       -0.9655068787
 C         -2.6361294974       -1.6020657010       -0.4657505980
 O         -2.1849397330       -2.7583742525       -0.5782486827
 O         -2.1381723999        1.8208276414        0.6037031315
 C         -0.6087917322       -0.5287621567        0.6471069139
 C          0.4450868543       -0.4271784349       -0.4300051245
 C          0.5264919924       -1.3567680096       -1.4624317440
 C          1.5071595853       -1.2437250330       -2.4303565061
 C          2.4387649902       -0.2211418992       -2.3755193952
 C          2.3710467172        0.7074786092       -1.3449420470
 C          1.3707893435        0.6052137129       -0.3870528178
 H          1.3261437603        1.3428879884        0.3999074195
 N          3.3121650688        1.7517920315       -1.2458284988
 S          4.2363451085        1.8360750962        0.1489125319
 O          3.3903293150        2.0993797898        1.2834603205
 O          5.2599620828        2.8160358808       -0.1358771378
 C          4.9697689519        0.2148673756        0.2837666326
 C          6.2354575781        0.0113267449       -0.2307428843
 C          6.7780907664       -1.2629421096       -0.1940128286
 C          6.0437708231       -2.3097375454        0.3426010798
 C          4.7730655963       -2.0897089237        0.8515817487
 C          4.2271253388       -0.8160775352        0.8248877776
 H          3.2428850287       -0.6126742863        1.2138781716
 H          4.1997920552       -2.9031795396        1.2663117062
 H          6.4633656253       -3.3030943571        0.3658493628
 H          7.7673322790       -1.4362639539       -0.5860201097
 H          6.7705926649        0.8549045062       -0.6360322147
 H          3.9147567763        1.8320086690       -2.0533092222
 H          3.2091044236       -0.1389590106       -3.1274941503
 H          1.5536238068       -1.9664877634       -3.2306544394
 H         -0.1922398277       -2.1605375193       -1.5022780188
 H         -0.5234831077        0.3697677053        1.2741601479
 C         -0.3485380335       -1.7423726566        1.5189026367
 C          0.6977057144       -1.6540688560        2.5877792537
 C         -0.7533468682       -1.7087975998        2.9603580052
 H         -1.1406472400       -2.6119928155        3.4071877007
 H         -1.2191001359       -0.8057844472        3.3282123862
 H          1.3102156335       -2.5204391440        2.7846525811
 H          1.2118810436       -0.7115051467        2.7112241591
 H         -0.4592864404       -2.6818114667        0.9935082558
