  62
        -98.94795619
 C          1.2403415800        0.7828437897        0.3907199090
 C          2.0781369496        0.5952034285       -0.7344357210
 C          3.0405556393       -0.5089492417       -0.6322661904
 C          3.0339388592       -1.3064910809        0.4510613002
 C          3.9304596589       -2.4925074210        0.6833884209
 C          5.3062010291       -2.1329834111        1.2614197903
 C          6.2666045491       -1.4572720922        0.2818607895
 H          7.2535928293       -1.4596691422        0.7486038593
 H          6.3347382787       -2.0552727329       -0.6274089900
 C          5.8929806196       -0.0121741723       -0.0764990715
 H          5.1808157299        0.3722299085        0.6571543984
 H          6.7830798398        0.6183278674       -0.0204677522
 C          5.3020523893        0.1612214368       -1.4756879215
 H          6.0520753090       -0.0994590941       -2.2256166615
 H          5.0423898396        1.2142291068       -1.6099956322
 C          4.0409924889       -0.6733802830       -1.7362623605
 H          3.5759577988       -0.3174638535       -2.6590410907
 H          4.3026440185       -1.7241839832       -1.8606418598
 H          5.1611763596       -1.4901878904        2.1327592498
 H          5.7662150989       -3.0618433810        1.6064632809
 H          3.4121619788       -3.1372700503        1.3968753715
 H          4.0571431084       -3.0432826218       -0.2493248387
 O          2.1671669896       -1.1319521998        1.4841648103
 C          1.2581841599       -0.0867503895        1.4807148097
 O          0.5247825102       -0.0398781684        2.4906162599
 H         -0.8327339906       -0.4319564401       -0.3321755295
 C         -1.2631791405        0.3802888696       -0.8974228100
 C         -0.8109593800        1.6755368696       -0.6888186411
 C         -1.3586266598        2.6979787792       -1.4535181018
 C         -2.3239953701        2.4172259088       -2.4053275113
 C         -2.7854087506        1.1269192088       -2.5949915802
 C         -2.2475963208        0.0985808592       -1.8299768196
 N         -2.6889096413       -1.2273413207       -1.9652181184
 S         -2.8282610513       -2.1640939896       -0.5843005777
 O         -1.5322330014       -2.6291720597       -0.1566569976
 O         -3.7759229618       -3.1964213695       -0.9497477066
 C         -3.5615256606       -1.0731274684        0.6226330317
 C         -4.8699644105       -0.6857646781        0.4015893317
 C         -5.4660955900        0.2061580928        1.2766590112
 C         -4.7445242496        0.7002660834        2.3532249906
 C         -3.4360377797        0.2970890131        2.5650927506
 C         -2.8337817902       -0.5983692778        1.6940176411
 H         -1.8126239303       -0.9151990281        1.8411837111
 H         -2.8657515793        0.6749427735        3.3989445601
 H         -5.2036215291        1.4010485141        3.0325021102
 H         -6.4859422399        0.5162282631        1.1161333312
 H         -5.4000872909       -1.1003216885       -0.4404490178
 H         -3.4736127015       -1.3547909909       -2.5873488981
 H         -3.5455930509        0.9136049385       -3.3304390599
 H         -2.7330807400        3.2186247385       -3.0013572419
 H         -1.0247446094        3.7123808592       -1.3096450727
 C          0.2149127604        1.9008613601        0.3966808484
 H         -0.3088765294        1.8245525110        1.3619340686
 C          0.8938332909        3.2523950298        0.3169241872
 C          0.2810172215        4.4459093205        0.9842389064
 C          1.5165200614        3.8201766905        1.5559569466
 H          2.4543997815        4.3475714101        1.4672073060
 H          1.4262348614        3.2424153413        2.4647770171
 H          0.3729741717        5.4086894701        0.5045626457
 H         -0.6488087985        4.3011983713        1.5131869368
 H          1.4193056407        3.3989064889       -0.6193783930
 O          2.0269183396        1.3072134077       -1.7711244516
