  62
        -98.94510126
 C          1.5584750496        0.3946524497       -0.6019657100
 C          2.8143073597        1.0462665897       -0.4958374103
 C          3.7926192997        0.4357770099        0.4124727698
 C          3.4442524596       -0.6614082099        1.1086293202
 C          4.3502912696       -1.4088753497        2.0429254804
 C          5.1085320695       -2.5247246399        1.3103817307
 C          5.7808029195       -2.0674942704        0.0158004605
 H          6.3098930494       -2.9289576306       -0.3973115992
 H          5.0099993295       -1.7868520806       -0.7054449595
 C          6.7615756296       -0.8993208804        0.1882027701
 H          7.0458471496       -0.8059242101        1.2369442701
 H          7.6705549495       -1.1191250606       -0.3756397199
 C          6.2389871497        0.4469461895       -0.3165556203
 H          5.8653593896        0.3351555092       -1.3373923702
 H          7.0784396897        1.1464792594       -0.3499005405
 C          5.1376809197        1.0958848398        0.5313364196
 H          5.0010133498        2.1200420897        0.1720537992
 H          5.4541423798        1.1386487301        1.5756654195
 H          4.4011270994       -3.3207987500        1.0668924310
 H          5.8597151795       -2.9336055098        1.9886383308
 H          5.0540704797       -0.7110879696        2.4928564801
 H          3.7391267696       -1.8522674594        2.8311365605
 O          2.2261845396       -1.2470102198        1.0001293904
 C          1.2539621196       -0.7446433500        0.1442216003
 O          0.2030120795       -1.4114348199        0.1401072406
 O          3.1049130897        2.0917420594       -1.1371232207
 C          0.5228699896        1.0284955595       -1.5187684002
 C         -0.4362584103        1.8245124298       -0.6656628004
 C         -0.1184265102        3.1379688799       -0.3302888608
 C         -0.9607370001        3.8828437402        0.4729328590
 C         -2.1300663501        3.3296937605        0.9644069892
 C         -2.4522973402        2.0160607304        0.6442793496
 C         -1.6117254303        1.2752953401       -0.1755672702
 H         -1.8640087504        0.2553147100       -0.4061269098
 N         -3.6407727802        1.4363894906        1.1137457699
 S         -3.6263304403       -0.1359712492        1.7058595104
 O         -4.7938262503       -0.1939609488        2.5638430304
 O         -2.3663837503       -0.4518024191        2.3347103304
 C         -3.9353449904       -1.1428254196        0.2714108207
 C         -5.1560428305       -0.9889479697       -0.3572314593
 C         -5.4337693606       -1.7529893000       -1.4784508990
 C         -4.4904874506       -2.6547915603       -1.9486321088
 C         -3.2720948706       -2.7984094401       -1.3035963688
 C         -2.9863821705       -2.0379982798       -0.1790863891
 H         -2.0373550305       -2.1085282797        0.3303914509
 H         -2.5338900907       -3.4946516003       -1.6694973086
 H         -4.7040718507       -3.2488988205       -2.8233758286
 H         -6.3802513806       -1.6433473701       -1.9827930690
 H         -5.8616591604       -0.2823860295        0.0468356405
 H         -4.1935997001        2.0397029809        1.7059067097
 H         -2.7881858200        3.9078774207        1.5956135491
 H         -0.7043108400        4.9013414303        0.7231521587
 H          0.8056529499        3.5613179297       -0.6976792910
 H          1.0871793097        1.7433248893       -2.1336574904
 C         -0.1677957505        0.0411962893       -2.4352008599
 C         -0.9800877505        0.5649081090       -3.5806231000
 C          0.3241637094       -0.1254463612       -3.8404909598
 H          0.3086701393       -1.1129880413       -4.2764507895
 H          1.1664988195        0.4751301486       -4.1518288501
 H         -1.8949417005        0.0542427490       -3.8384662798
 H         -1.0208637904        1.6357340989       -3.7115536903
 H         -0.5237965005       -0.8467920005       -1.9299660396
