  62
        -98.93972648
 C         -1.7488005286       -1.3637673614        0.3852992308
 C         -1.6420497341       -0.2071898360       -0.4212084804
 C         -2.4757502095        0.9458905370       -0.0279159127
 C         -3.2574705267        0.8568626136        1.0643116439
 C         -4.1664149133        1.8712692968        1.7275005762
 C         -4.5520993053        3.1615565075        1.0092238630
 C         -5.4629943839        2.9674832833       -0.2026928032
 H         -5.5849344904        3.9334159277       -0.6975193854
 H         -6.4468670709        2.6490333255        0.1510305598
 C         -4.9864065994        1.9397842849       -1.2258838031
 H         -5.7334591573        1.8906538005       -2.0227039839
 H         -4.9463960427        0.9519881587       -0.7622691244
 C         -3.6363517180        2.2404757485       -1.8730672823
 H         -3.6544822414        3.2402487419       -2.3111772474
 H         -3.4941075949        1.5216794470       -2.6842913942
 C         -2.4155151814        2.1350485796       -0.9429060381
 H         -2.2686759875        3.0522296643       -0.3769355276
 H         -1.5308011336        1.9852175778       -1.5685735438
 H         -3.6622128500        3.7201635929        0.7343874804
 H         -5.0955002683        3.7716690071        1.7359482094
 H         -5.0766560950        1.3255866334        1.9962193818
 H         -3.6772215227        2.1336157267        2.6724298410
 O         -3.2970553485       -0.2732147990        1.8320575908
 C         -2.5640503130       -1.4034335803        1.5131745757
 O         -2.7143720549       -2.3559555692        2.3058549880
 H          0.4203022080       -1.0014027601        1.6743541355
 C          1.0682161051       -1.4293606208        0.9187723570
 C          0.5270668078       -2.2874572499       -0.0300051748
 C          1.3737416952       -2.8289870024       -0.9889815000
 C          2.7219335250       -2.5145757068       -0.9946211760
 C          3.2543430094       -1.6527548980       -0.0540176397
 C          2.4149835965       -1.1016742052        0.9060814756
 N          2.9384608023       -0.2086955986        1.8564159463
 S          4.0056679936        0.9655603625        1.3233238402
 O          5.3324574675        0.4053220574        1.2468620095
 O          3.8430979878        2.0674116489        2.2465491947
 C          3.4559353432        1.4312848831       -0.3087695280
 C          4.3032784781        1.2730455576       -1.3865202137
 C          3.8561036895        1.6296814379       -2.6483269150
 C          2.5761029982        2.1364987817       -2.8087687812
 C          1.7396330329        2.2960083307       -1.7150301027
 C          2.1800679039        1.9387260691       -0.4518743487
 H          1.5478831417        2.0492350820        0.4151894000
 H          0.7424167316        2.6853053639       -1.8412636015
 H          2.2245904775        2.4095311538       -3.7911734302
 H          4.5046272957        1.5087384800       -3.5010186169
 H          5.2903752015        0.8750844181       -1.2156824130
 H          2.2445873386        0.1838404445        2.4751202749
 H          4.3025077253       -1.4019890451       -0.0419146625
 H          3.3674392171       -2.9447416602       -1.7447730724
 H          0.9771773419       -3.4972140951       -1.7353495889
 C         -0.9479619191       -2.6039851040        0.0369409732
 H         -1.1065220598       -3.3116768691        0.8645309295
 C         -1.4847428284       -3.2198897776       -1.2397984557
 C         -1.4424197323       -4.7034527955       -1.4455821786
 C         -2.7491610614       -4.0210888896       -1.1771691034
 H         -3.4608225889       -3.9281605060       -1.9837895006
 H         -3.2057616467       -4.1492631048       -0.2060575960
 H         -1.0171622475       -5.3071515829       -0.6580261466
 H         -1.2599959647       -5.0817706723       -2.4401848822
 H         -1.3414972785       -2.5774127095       -2.1009935102
 O         -0.8804666739       -0.1295951705       -1.4183095449
