  62
        -98.94088919
 C         -2.6500613943       -1.2486270362       -0.3138686837
 C         -2.2251650107       -0.0723568663       -0.9783407210
 C         -3.2118548041        1.0139228105       -1.0400870860
 C         -4.4375558583        0.8395774117       -0.5138779068
 C         -5.5589202159        1.8426556564       -0.5249034496
 C         -5.4927958279        2.8631021885        0.6195196584
 C         -4.3914795127        3.9158099063        0.4881078327
 H         -4.4567400453        4.3885418014       -0.4923134421
 H         -4.5928919166        4.6857668862        1.2354566964
 C         -2.9705767935        3.3768492361        0.7074246911
 H         -2.4215610537        4.0501837846        1.3698303441
 H         -3.0190462778        2.4081985060        1.2110869896
 C         -2.1432111532        3.2278003288       -0.5696153385
 H         -1.1711213152        2.8060404633       -0.2981922269
 H         -1.9705656968        4.2124373836       -1.0101414557
 C         -2.7788357138        2.3209679055       -1.6320406445
 H         -2.0263683217        2.1084080413       -2.3952077138
 H         -3.6223725749        2.8264748346       -2.1016411960
 H         -5.3700346349        2.3241201746        1.5618182577
 H         -6.4556606666        3.3778723454        0.6536978417
 H         -5.5732720775        2.3665412057       -1.4808521259
 H         -6.4855236809        1.2733696112       -0.4250043421
 O         -4.8147456599       -0.3169369090        0.0933068737
 C         -3.9254672663       -1.3677840937        0.2413697716
 O         -4.3847845507       -2.3437000450        0.8682936294
 O         -1.0899001040        0.0700301556       -1.5035495707
 C         -1.7002505474       -2.4209574600       -0.1265684290
 C         -0.5630658625       -1.9538623325        0.7491632618
 C         -0.8076723133       -1.7421565727        2.1037422941
 C          0.1814408919       -1.2446400110        2.9301564388
 C          1.4342842488       -0.9423922027        2.4240086774
 C          1.6850010419       -1.1428183446        1.0740954172
 C          0.6922397964       -1.6552852159        0.2469633193
 H          0.8968909460       -1.7927421675       -0.8027785160
 N          2.9569813383       -0.8481125658        0.5450386698
 S          3.6690192748        0.6116771638        1.0123021792
 O          4.2468252538        0.4364073874        2.3220706244
 O          2.7273659020        1.7012147233        0.8813698911
 C          4.9639200196        0.7485425200       -0.2038719792
 C          6.1840339743        0.1504772897        0.0470582586
 C          7.1774784169        0.2269759740       -0.9160976960
 C          6.9348846589        0.8944460337       -2.1073921682
 C          5.7053227862        1.4907994707       -2.3443334646
 C          4.7068583837        1.4170926276       -1.3858282083
 H          3.7385268923        1.8717642616       -1.5249982698
 H          5.5199855057        2.0111089031       -3.2703164581
 H          7.7092398801        0.9530615261       -2.8558470108
 H          8.1354670659       -0.2331314194       -0.7354104026
 H          6.3278970136       -0.3503679800        0.9900340344
 H          2.9611584665       -0.9260709556       -0.4636725975
 H          2.2103203114       -0.5376279650        3.0533541238
 H         -0.0230818299       -1.0840055394        3.9783744651
 H         -1.7924827311       -1.9603994716        2.4950580844
 H         -2.2654330422       -3.1839664618        0.4253124679
 C         -1.2660943051       -3.0007751005       -1.4557886839
 C         -0.6495255902       -4.3658451900       -1.4984012829
 C         -2.0323196612       -4.1505875251       -2.0341326245
 H         -2.1833378811       -4.1824366109       -3.1027429113
 H         -2.8685007447       -4.5292096229       -1.4645659393
 H          0.1494904314       -4.5508654313       -2.1999699466
 H         -0.5446817582       -4.8928308731       -0.5621479219
 H         -0.9008398587       -2.2526526612       -2.1486270169
