  62
        -98.93067614
 C          2.4441817409       -0.9142060972       -0.0323031422
 C          2.8908037196        0.2112055003       -0.7707010385
 C          4.0557115349        0.9280328519       -0.2380877593
 C          4.6197764813        0.5112005664        0.9093969912
 C          5.7770745555        1.1499600060        1.6309036456
 C          7.1320608587        1.1311316734        0.8977311476
 C          7.4243168938        2.3930897443        0.0766177310
 H          6.8460846335        3.2213680093        0.4879146366
 H          8.4773416527        2.6550115602        0.1984387554
 C          7.1629166097        2.2852836486       -1.4286723133
 H          7.9835903456        1.7349622907       -1.8946537790
 H          7.1690773632        3.2960770145       -1.8422622111
 C          5.8608984981        1.5932852750       -1.8328660788
 H          5.9628430346        0.5133628612       -1.7011472051
 H          5.7039801859        1.7594313783       -2.9005693051
 C          4.6151575571        2.0574728749       -1.0532878322
 H          4.8538561054        2.9085506751       -0.4171943273
 H          3.8297807491        2.3572350293       -1.7500042502
 H          7.1928684842        0.2435867088        0.2683896515
 H          7.9038091975        1.0373600122        1.6634145202
 H          5.8725100281        0.6000691057        2.5694038386
 H          5.5112587320        2.1812665195        1.8739032745
 O          4.1527251795       -0.5636901652        1.5980420519
 C          3.0660029595       -1.3083505467        1.1534268858
 O          2.7789869200       -2.2611922377        1.8995183898
 O          2.3353506626        0.5983710707       -1.8344959757
 C          1.2504716176       -1.6620905637       -0.5979974644
 C         -0.0397944745       -1.1195696865       -0.0379273006
 C         -0.2389125202       -0.9978563708        1.3338196901
 C         -1.4336099737       -0.5049448619        1.8259575420
 C         -2.4482072011       -0.1192548000        0.9669204538
 C         -2.2605526422       -0.2359735563       -0.4033840231
 C         -1.0604480141       -0.7356902196       -0.8949435905
 H         -0.9125924784       -0.8127052087       -1.9638738119
 N         -3.2781967776        0.1689475907       -1.2801529271
 S         -4.8553530332       -0.3224140232       -0.9869150231
 O         -4.8911186945       -1.5846065704       -0.2861615053
 O         -5.5051159745       -0.2832093032       -2.2784119423
 C         -5.5240222702        0.9693860163        0.0394944213
 C         -6.0855937994        0.6568814829        1.2619324979
 C         -6.6083535938        1.6781769628        2.0400531272
 C         -6.5615652055        2.9864762654        1.5836918538
 C         -5.9964850930        3.2833174773        0.3522495662
 C         -5.4730528730        2.2669862728       -0.4307146558
 H         -5.0295500478        2.4560908226       -1.3940303330
 H         -5.9622276799        4.3019776741        0.0007205227
 H         -6.9680651222        3.7796912937        2.1910906215
 H         -7.0483610573        1.4493958926        2.9974281714
 H         -6.0965210893       -0.3740979811        1.5785280186
 H         -3.0417147803        0.0822805298       -2.2577405493
 H         -3.3789481334        0.2670058013        1.3486449202
 H         -1.5761254155       -0.4173217334        2.8924667884
 H          0.5501950541       -1.2992481601        2.0062341897
 H          1.2628846560       -1.4276056751       -1.6746634026
 C          1.3653991470       -3.1744572437       -0.4677421459
 C          0.5082002652       -4.0027499098        0.4363767485
 C          0.2999023101       -4.0590916730       -1.0454363671
 H          0.5965657519       -4.9483486864       -1.5806525036
 H         -0.5845670305       -3.5804952994       -1.4399110254
 H          0.9720075277       -4.8419029293        0.9316173297
 H         -0.2380354444       -3.5052490171        1.0352651167
 H          2.3902612925       -3.5105366316       -0.5891013732
