  62
        -98.94457298
 C          0.8299762905        1.0394847254        0.7605052809
 C          1.1818901050        0.6077473508       -0.5426338889
 C          2.1291421046       -0.5172975084       -0.6050335852
 C          2.4794095699       -1.1513128199        0.5267449939
 C          3.4925425933       -2.2546302413        0.6147313190
 C          4.8946406562       -1.6911893530        0.8889914539
 C          5.2890198591       -0.5364511294       -0.0324510193
 H          4.6436147957        0.3209016219        0.1727250426
 H          6.3061259680       -0.2413237634        0.2347576139
 C          5.2298328644       -0.8681898288       -1.5302731078
 H          5.2259180406       -1.9496951942       -1.6698880852
 H          6.1328714389       -0.4833654529       -2.0087428015
 C          4.0382396678       -0.2565122806       -2.2699142241
 H          3.9874618958        0.8143938688       -2.0569181784
 H          4.2117768853       -0.3674878565       -3.3434644574
 C          2.6715603473       -0.8802678454       -1.9581401758
 H          1.9511600711       -0.4891736019       -2.6819690430
 H          2.7304440087       -1.9626606385       -2.0782824726
 H          5.6187982016       -2.5017964317        0.7890199573
 H          4.9285825180       -1.3317173541        1.9202739569
 H          3.2135018430       -2.9195025195        1.4334472740
 H          3.4955596390       -2.8171426926       -0.3163107202
 O          1.9769920991       -0.8172491533        1.7438581174
 C          1.1768213591        0.3031158305        1.8955045265
 O          0.8333337452        0.5293253532        3.0739831084
 H         -1.9940422914        0.5532758424        0.9873658340
 C         -2.1218354776        1.2776827427        0.1952625786
 C         -1.1850381961        2.2931984819        0.0479567591
 C         -1.3731808586        3.2362306401       -0.9533207402
 C         -2.4659745162        3.1462376582       -1.7970212097
 C         -3.3847809692        2.1218282384       -1.6635700430
 C         -3.2100152879        1.1790899505       -0.6557057643
 N         -4.1329959013        0.1407485791       -0.4879323529
 S         -3.8287438798       -1.2042523583        0.4306549519
 O         -4.8612351086       -2.1388530735        0.0330802922
 O         -3.8074649956       -0.8599529906        1.8312626972
 C         -2.2448375302       -1.8645467355       -0.0590118437
 C         -1.8974734338       -1.9046786319       -1.3939325635
 C         -0.7086962449       -2.5161118736       -1.7574221379
 C          0.1015078998       -3.0845347508       -0.7877614031
 C         -0.2558920672       -3.0285076115        0.5497606809
 C         -1.4381680667       -2.4098246100        0.9193074853
 H         -1.7475132650       -2.3349868952        1.9503630704
 H          0.3797942016       -3.4596946506        1.3067413045
 H          1.0161800197       -3.5782949968       -1.0735185205
 H         -0.4193177030       -2.5492957428       -2.7952534435
 H         -2.5474073149       -1.4632224706       -2.1316023264
 H         -4.7914556963       -0.0098116487       -1.2357206520
 H         -4.2301908007        2.0474191902       -2.3298896049
 H         -2.5985080981        3.8788419970       -2.5786161137
 H         -0.6496127529        4.0223099789       -1.0921445691
 C         -0.0079412599        2.2860184383        0.9894488628
 H         -0.4011094077        2.1829341920        2.0146292826
 C          0.7974141528        3.5773380782        0.9574450669
 C          2.2240898268        3.6025758648        1.4170665689
 C          1.8991557067        3.8154111178       -0.0293014657
 H          2.0143035763        4.8088288749       -0.4376129162
 H          2.1227099980        3.0271638828       -0.7303144747
 H          2.6693449358        2.6629088867        1.7117110547
 H          2.5609166611        4.4454635590        2.0016833553
 H          0.1914279119        4.4364482271        1.2288003741
 O          0.7565325662        1.1325329561       -1.6020152620
