  62
        -98.94046599
 C         -2.0221214514       -1.1930495106        0.5383624434
 C         -1.9406242694        0.1268218955        1.0564178236
 C         -3.0358516852        1.0365659492        0.7075826021
 C         -4.0595982179        0.5864038735       -0.0396462847
 C         -5.2773103039        1.3724850564       -0.4433825927
 C         -5.0786861530        2.2356156380       -1.6967234700
 C         -4.2015993426        3.4726376504       -1.5000912115
 H         -4.3229213498        4.0964008225       -2.3879433628
 H         -4.5687452243        4.0452353652       -0.6477544318
 C         -2.7093246427        3.1651949414       -1.3132076669
 H         -2.5019669614        2.1465588793       -1.6504013158
 H         -2.1174129699        3.8339274724       -1.9424712304
 C         -2.2014137525        3.3254157881        0.1196902742
 H         -1.1443238079        3.0481658273        0.1328005769
 H         -2.2784247287        4.3726535762        0.4201729875
 C         -2.9396006778        2.4644182664        1.1536260587
 H         -3.9330629539        2.8720692966        1.3393673727
 H         -2.3735544167        2.4841187800        2.0881187469
 H         -4.6563967733        1.6116416129       -2.4879965925
 H         -6.0669400378        2.5650764136       -2.0258717572
 H         -6.0633284218        0.6427340213       -0.6495569144
 H         -5.5976681879        2.0030418303        0.3865751283
 O         -4.1097494206       -0.6859480493       -0.5089795045
 C         -3.0833396018       -1.5933851803       -0.2743466310
 O         -3.2600935677       -2.6896325247       -0.8411541301
 O         -0.9950547430        0.5225234964        1.7873672134
 C         -0.8700673785       -2.1207425541        0.8873543839
 C          0.2016893864       -2.0570271971       -0.1758077733
 C         -0.0943906846       -2.3215644221       -1.5089977921
 C          0.8833963279       -2.2150145679       -2.4812072001
 C          2.1751544032       -1.8488916832       -2.1446450253
 C          2.4837929022       -1.5932373577       -0.8163334637
 C          1.5006179185       -1.7026784787        0.1602281820
 H          1.7435071218       -1.4844244200        1.1915703018
 N          3.8061249871       -1.2180961958       -0.4905099689
 S          4.3014594073        0.3216948011       -0.9347693245
 O          3.7311207770        0.6350528322       -2.2192692184
 O          5.7435583071        0.3260009476       -0.8489185534
 C          3.6379085150        1.3886280997        0.3332580015
 C          4.4964792185        1.9645032751        1.2493064037
 C          3.9664651008        2.7286765930        2.2764934228
 C          2.5923011269        2.8804130687        2.3851237014
 C          1.7424325145        2.2896707065        1.4623147880
 C          2.2681372415        1.5450185007        0.4185304994
 H          1.6283841615        1.0790270541       -0.3148029360
 H          0.6716866053        2.3673854271        1.5660623282
 H          2.1764730496        3.4582610081        3.1954557212
 H          4.6235515769        3.1918777312        2.9950207620
 H          5.5561751970        1.8022737416        1.1359005721
 H          4.0458807196       -1.3789757610        0.4780801542
 H          2.9429779458       -1.7420934734       -2.8931549431
 H          0.6371143895       -2.4178670178       -3.5126956787
 H         -1.1020999155       -2.6018562114       -1.7765120381
 H         -0.4428532038       -1.7124985841        1.8135920554
 C         -1.2810942287       -3.5565668076        1.1439078967
 C         -0.3985411369       -4.4242682918        1.9882912800
 C         -1.7218381913       -3.9602545644        2.5173886109
 H         -2.5244462496       -4.6762983259        2.6091011665
 H         -1.7262099432       -3.2004040850        3.2853154783
 H         -0.2880394917       -5.4627291483        1.7167626580
 H          0.4950387566       -3.9812204800        2.4012531684
 H         -1.7864133251       -4.0168761714        0.3054511999
