  62
        -98.93675231
 C         -2.4517510294       -0.2158295013        0.0125285798
 C         -2.2710162998        0.8331786183        0.9399272103
 C         -1.7569484106        2.1074110089        0.4083097510
 C         -1.5227128108        2.2156103197       -0.9119937390
 C         -0.9495121016        3.3774147905       -1.6848792184
 C         -1.4062137523        4.7904074900       -1.2934999276
 C         -0.3312631426        5.6005651102       -0.5661119173
 H          0.6347455774        5.3845294610       -1.0270830975
 H         -0.5350331932        6.6633321802       -0.7146151666
 C         -0.2351426223        5.3559816694        0.9386610626
 H         -1.1025095524        5.7979013486        1.4337188430
 H          0.6511007975        5.8800707897        1.3036852127
 C         -0.1418892414        3.8874202692        1.3569364117
 H          0.5217272688        3.3331395699        0.6914902713
 H          0.3083764588        3.8457327889        2.3513266316
 C         -1.5062361410        3.1838218684        1.4283362015
 H         -1.6082950806        2.6791835778        2.3941490013
 H         -2.3126393514        3.9209383680        1.3818363621
 H         -2.3132281522        4.7346312992       -0.6944500275
 H         -1.6580924327        5.3203165204       -2.2136244372
 H          0.1404221685        3.3045938910       -1.6255702186
 H         -1.2143178316        3.1775884009       -2.7260663585
 O         -1.7632889304        1.1914948301       -1.7793082395
 C         -2.1719961697       -0.0545130204       -1.3433356102
 O         -2.2711253794       -0.9093256999       -2.2453323707
 H         -0.2444113688       -1.0910497206        0.9476125289
 C         -0.3715017983       -2.0540105004        0.4733533184
 C         -1.6513402281       -2.5197736210        0.1974664783
 C         -1.7888573976       -3.7709351307       -0.3876130823
 C         -0.6668379372       -4.5092505199       -0.7257886829
 C          0.6047835826       -4.0129332493       -0.5076246628
 C          0.7515937320       -2.7705705396        0.1010186478
 N          2.0234663017       -2.2287172991        0.3571362280
 S          2.1923427208       -0.5475515290        0.3142703489
 O          1.8258538707       -0.0169346599        1.6039917992
 O          1.5090999803        0.0104644313       -0.8312734807
 C          3.9593910407       -0.4187218779        0.1044496187
 C          4.4795860604       -0.1625791869       -1.1497708013
 C          5.8556629003       -0.0959527961       -1.3045279914
 C          6.6833812606       -0.2900236963       -0.2090558217
 C          6.1466535309       -0.5465339673        1.0440986983
 C          4.7719517610       -0.6118693581        1.2060397084
 H          4.3078504612       -0.7979957389        2.1604340784
 H          6.7931299411       -0.6941723074        1.8939766181
 H          7.7534942806       -0.2384763656       -0.3325460418
 H          6.2748018201        0.1059574647       -2.2770225114
 H          3.7954458202       -0.0130630068       -1.9699617311
 H          2.7598528419       -2.6919910484       -0.1578130624
 H          1.4759641628       -4.5762172387       -0.8054650433
 H         -0.7861897968       -5.4767247197       -1.1895593435
 H         -2.7719568974       -4.1596202111       -0.5971029124
 C         -2.8070156186       -1.6025655218        0.5197561090
 H         -2.8849213085       -1.5070042824        1.6132437191
 C         -4.1354741684       -2.0736774422       -0.0297238010
 C         -4.9675842378       -3.0497437330        0.7459410885
 C         -5.3971818686       -1.6184751132        0.6382653394
 H         -6.2489260988       -1.3781232933        0.0200842997
 H         -5.2950903688       -0.9843610237        1.5069117798
 H         -5.5299243975       -3.7938382130        0.2025373582
 H         -4.5810530674       -3.3916007234        1.6941240683
 H         -4.1363212185       -2.1395882716       -1.1117909911
 O         -2.5128613596        0.7051413175        2.1730543303
