  62
        -98.93715112
 C         -1.4169237511       -1.2353847498        0.0132872819
 C         -2.6876934011       -1.3250148486        0.6357123621
 C         -3.4809513606       -0.0870701882        0.7264516209
 C         -2.9587019901        1.0635859711        0.2634545397
 C         -3.4983948595        2.4786831314        0.2750586484
 C         -4.9729107193        2.7500512523        0.5624231682
 C         -5.9378950296        2.2443053017       -0.5092987913
 H         -5.8015476794        2.8450630208       -1.4121507419
 H         -6.9580683395        2.4061463425       -0.1542038414
 C         -5.7764181203        0.7781729412       -0.9033259499
 H         -4.7948190204        0.6261681404       -1.3569190298
 H         -6.5226292704        0.5541249108       -1.6706131096
 C         -5.9608762407       -0.2283432376        0.2309299511
 H         -5.9832630311       -1.2264180380       -0.2154874079
 H         -6.9234001606       -0.0606944966        0.7181613810
 C         -4.8593531706       -0.2261946570        1.3054797111
 H         -4.8823941710       -1.1941855465        1.8146881120
 H         -5.0406147802        0.5396485138        2.0559949503
 H         -5.0844577688        3.8363479624        0.6190537671
 H         -5.2465440795        2.3557256434        1.5366334786
 H         -3.2411869893        2.9031269303       -0.7004033621
 H         -2.8989509692        3.0184206119        1.0162869378
 O         -1.7162518901        1.1106233200       -0.2945556804
 C         -0.9212628206       -0.0162563305       -0.4533471993
 O          0.1616297095        0.2199293185       -1.0163493696
 O         -3.1438965416       -2.4006517279        1.1081520531
 C         -0.5783654417       -2.5022728502       -0.0414476569
 C          0.7712800185       -2.2029325802        0.5552290828
 C          0.9275814685       -2.1986011989        1.9374595128
 C          2.1295879287       -1.8261436989        2.5107661123
 C          3.1894475789       -1.4226915002        1.7174365619
 C          3.0353493188       -1.4079622014        0.3373734119
 C          1.8443193486       -1.8276884015       -0.2379519077
 H          1.7361601786       -1.8144031925       -1.3109874477
 N          4.0921718990       -0.9517248927       -0.4780262986
 S          4.6596406497        0.5994611973       -0.1922017502
 O          5.4619435098        0.9255798558       -1.3504394605
 O          5.3486661698        0.6149360983        1.0751755598
 C          3.2294203402        1.6611044980       -0.1183406012
 C          2.7881368804        2.2567646271       -1.2816438817
 C          1.6563667207        3.0524973876       -1.2400001825
 C          0.9803007209        3.2272710091       -0.0437167626
 C          1.4341504006        2.6191447300        1.1152120380
 C          2.5708680603        1.8287203495        1.0823374787
 H          2.9535463101        1.3435977402        1.9655161492
 H          0.9003862507        2.7489446112        2.0438452679
 H          0.0876162411        3.8325718895       -0.0167996631
 H          1.2956406709        3.5209548969       -2.1417703029
 H          3.3399909603        2.0924598159       -2.1934912316
 H          3.8854446189       -1.0430377436       -1.4631980585
 H          4.1242389590       -1.0989187801        2.1461049615
 H          2.2403736088       -1.8374850379        3.5846719423
 H          0.0895321084       -2.4800806679        2.5600040531
 H         -1.1038418620       -3.2060500893        0.6233176938
 C         -0.4962999920       -3.1727804016       -1.4039554762
 C         -1.7147843321       -3.2682703319       -2.2717735161
 C         -0.5534272818       -2.4253431828       -2.7009867170
 H          0.0599261080       -2.7798712439       -3.5170922666
 H         -0.6528520113       -1.3522331428       -2.6668629780
 H         -1.9071233226       -4.1917006023       -2.7968682551
 H         -2.6071122119       -2.7670419912       -1.9257595865
 H          0.1489045376       -4.0462865719       -1.3792173054
