  62
        -98.93767838
 C          1.2201337995        1.4254050905        0.2677212812
 C          1.7914954895        0.4905168702        1.1633677609
 C          3.0415149100       -0.1736022689        0.7464615011
 C          3.5369469805        0.0953913221       -0.4753787185
 C          4.7751645611       -0.4571703369       -1.1317041482
 C          4.5909974321       -1.8947072967       -1.6383396192
 C          3.9284137021       -2.8422714176       -0.6424474001
 H          2.9319297818       -2.4683151283       -0.3978439803
 H          3.7915886328       -3.8054653374       -1.1417797407
 C          4.7161410216       -3.0889732980        0.6426852102
 H          4.1941494817       -3.8768808086        1.1917562094
 H          5.7090541819       -3.4651730573        0.3865978704
 C          4.8729990905       -1.8869102485        1.5784483910
 H          5.6657320303       -1.2231531079        1.2432060218
 H          5.1838727102       -2.2736335689        2.5532368509
 C          3.5913603700       -1.0934276293        1.8097309308
 H          3.7222901792       -0.4666303297        2.7000269013
 H          2.7800752402       -1.7863312798        2.0628284400
 H          5.5690850624       -2.2873180360       -1.9226514889
 H          3.9654718125       -1.8626317065       -2.5340821095
 H          4.9871019212        0.1875346337       -1.9877898477
 H          5.6200091507       -0.3949449969       -0.4521655678
 O          2.9078575205        0.9424467623       -1.3391611283
 C          1.7383902300        1.6085103415       -1.0141718585
 O          1.2838329601        2.3112531018       -1.9361481183
 O          1.2763022591        0.2122964193        2.2807125005
 C         -0.0647673911        2.1130675195        0.6898891510
 C         -1.1342512905        1.8920356396       -0.3500698497
 C         -1.9207556407        2.8974745296       -0.8957395995
 C         -2.9000536901        2.5890354596       -1.8248591901
 C         -3.1362550892        1.2809269697       -2.2062433610
 C         -2.3517196890        0.2676247598       -1.6667891413
 C         -1.3583744596        0.5830217098       -0.7561799406
 H         -0.7303525394       -0.2060616902       -0.3710968308
 N         -2.5543117181       -1.0781574301       -2.0097305422
 S         -2.3445349781       -2.2463482407       -0.8317913128
 O         -0.9423945181       -2.5163538701       -0.6314421523
 O         -3.1385899673       -3.3658820708       -1.2927899738
 C         -3.0773890592       -1.5483669420        0.6384975973
 C         -4.4410180393       -1.3254545326        0.6224825968
 C         -5.0400658901       -0.7393944036        1.7248354168
 C         -4.2679440609       -0.3824684139        2.8201591374
 C         -2.9025644307       -0.6193992232        2.8245577679
 C         -2.2979024899       -1.2084138322        1.7248465979
 H         -1.2353069598       -1.3952755517        1.7011143783
 H         -2.2955248813       -0.3431507934        3.6721567884
 H         -4.7315356815        0.0812399354        3.6764624875
 H         -6.1028356602       -0.5589208542        1.7258651464
 H         -5.0093400887       -1.6246252124       -0.2431030737
 H         -3.3625182878       -1.2573250202       -2.5868431427
 H         -3.9070959488        1.0441678798       -2.9233315216
 H         -3.4962745403        3.3807366396       -2.2523477200
 H         -1.7543482014        3.9236052795       -0.6126724688
 H         -0.3749151413        1.5599168588        1.5936662205
 C          0.0927405880        3.5656839494        1.1120975519
 C          1.4184081775        4.1053521998        1.5571482929
 C          0.8097599479        4.5789826502        0.2729723029
 H          0.4144524574        5.5837625901        0.2360751533
 H          1.2393513885        4.2422366510       -0.6568240471
 H          1.4419974167        4.7808597693        2.3992097433
 H          2.2715793678        3.4442353702        1.5023245629
 H         -0.7732737325        3.9205519586        1.6623873717
