  62
        -98.93869592
 C          1.8458126306        0.9532319685        0.3648122222
 C          2.4633926321        0.2578769019       -0.6992584304
 C          3.5559221659       -0.6706931306       -0.3412076178
 C          3.8778994276       -0.8254406230        0.9565842257
 C          4.9680121497       -1.6759174834        1.5528923154
 C          6.3656165820       -1.0618049971        1.3727134210
 C          6.6451289058       -0.4959424746       -0.0170196859
 H          5.8998164233        0.2665342261       -0.2501950323
 H          7.6180900167        0.0012334986        0.0171338850
 C          6.6867954483       -1.5263048945       -1.1429895754
 H          6.9846917387       -0.9998843102       -2.0533715639
 H          7.4574467721       -2.2681611884       -0.9218953581
 C          5.3740676609       -2.2592717177       -1.4280918213
 H          5.4849627108       -2.7622387995       -2.3932499147
 H          5.1920238468       -3.0400479400       -0.6943372349
 C          4.1522159959       -1.3538521240       -1.5481593084
 H          4.3652870698       -0.5583386761       -2.2712923023
 H          3.3317587629       -1.9313239658       -1.9918976866
 H          6.4706969123       -0.2455408647        2.0915762973
 H          7.1096065722       -1.8224121500        1.6154066631
 H          4.7571630645       -1.7511832463        2.6221148260
 H          4.9288292171       -2.6786250085        1.1374765359
 O          3.2292498637       -0.1552008860        1.9528803595
 C          2.2071794150        0.7361872075        1.6927697010
 O          1.6990894804        1.2548724245        2.7088494669
 O          2.1282492155        0.4018696364       -1.9038626598
 C          0.7231877720        1.9351362909        0.0820826218
 C         -0.4249696132        1.2231845153       -0.5923769819
 C         -1.0725640875        1.7078573066       -1.7206043827
 C         -2.1136811838        0.9953733430       -2.2917469254
 C         -2.5383969762       -0.2023206816       -1.7481407268
 C         -1.9130689028       -0.6837903406       -0.6041485383
 C         -0.8723082280        0.0318932297       -0.0332124485
 H         -0.3831702648       -0.3476350572        0.8559841571
 N         -2.3463064892       -1.8897678229       -0.0300326773
 S         -3.9899187474       -2.1795536563        0.0744579080
 O         -4.1451569099       -3.0625815108        1.2093259863
 O         -4.4751071715       -2.6862210932       -1.1852496599
 C         -4.7344903693       -0.5927433777        0.4095789764
 C         -5.6775976140       -0.0788714811       -0.4569598847
 C         -6.2273727028        1.1646446756       -0.1891922449
 C         -5.8234218246        1.8706103799        0.9330662192
 C         -4.8771538590        1.3392767436        1.7963007879
 C         -4.3261640043        0.0954455655        1.5349567293
 H         -3.5913675886       -0.3450878282        2.1901461344
 H         -4.5632894390        1.8890747735        2.6691856004
 H         -6.2477185085        2.8406130386        1.1386447651
 H         -6.9648873977        1.5791217700       -0.8573064045
 H         -5.9595952573       -0.6604170325       -1.3195510492
 H         -1.8698774653       -2.1367291244        0.8241739100
 H         -3.3317864825       -0.7785901143       -2.1955979202
 H         -2.5982907015        1.3765170234       -3.1774230602
 H         -0.7549664720        2.6377836628       -2.1619737872
 H          0.3745622674        2.2854835142        1.0647643144
 C          1.2475343647        3.1208864313       -0.7002772448
 C          0.6028775456        4.4657282890       -0.5561134398
 C          1.9558219595        4.2157564423        0.0374623863
 H          2.8172749450        4.6751822748       -0.4236167652
 H          2.0367978350        4.1187048366        1.1106649704
 H          0.5371151737        5.1023728991       -1.4254397099
 H         -0.2367950642        4.5483068248        0.1170581727
 H          1.6382503201        2.8381638584       -1.6708223512
