  62
        -98.93335398
 C         -2.5197536898       -1.0128516636        0.3428468236
 C         -2.6417085386        0.1560836878        1.1281306995
 C         -3.5303359157        1.2188912501        0.6203183418
 C         -4.1427510524        1.0354782103       -0.5644640465
 C         -5.0638746706        1.9759499549       -1.2957344152
 C         -4.3166470445        3.1361916398       -1.9718050424
 C         -3.2451164798        3.7977272453       -1.1095654317
 H         -2.7237391638        4.5295338418       -1.7321919032
 H         -2.5119652218        3.0459823062       -0.8113897278
 C         -3.7643499841        4.5234225538        0.1295027071
 H         -4.4787522743        5.2902952768       -0.1778101447
 H         -2.9117573559        5.0295900492        0.5893591144
 C         -4.4230093701        3.6434157071        1.1944183742
 H         -5.4370547863        3.3743755736        0.9114039072
 H         -4.5047133013        4.2425026388        2.1060645746
 C         -3.6321744490        2.3927298429        1.5648566170
 H         -4.0426383869        1.9838850100        2.4960937186
 H         -2.6019529400        2.6778849521        1.8067963283
 H         -5.0494065263        3.8824883590       -2.2834071006
 H         -3.8289013398        2.7465642065       -2.8687340047
 H         -5.8287041566        2.3489387609       -0.6209943979
 H         -5.5615069461        1.3862841736       -2.0688267021
 O         -3.9569597627       -0.0899936198       -1.3114751855
 C         -3.1528999661       -1.1345175012       -0.8937914591
 O         -3.0941003725       -2.0864450729       -1.6940984910
 O         -2.0295459285        0.3152004999        2.2203827250
 C         -1.6372329427       -2.1397258539        0.8525743839
 C         -0.3975153655       -2.2186354666       -0.0044398955
 C         -0.1406499924       -3.2536267396       -0.8925999010
 C          1.0092169429       -3.2409640337       -1.6640548435
 C          1.9226922948       -2.2081745361       -1.5644961446
 C          1.6791192615       -1.1707053199       -0.6725057594
 C          0.5271562917       -1.1854236222        0.0993491436
 H          0.3300188358       -0.3781507545        0.7939819671
 N          2.5987251883       -0.1075437828       -0.5672216742
 S          4.2303685508       -0.5347933508       -0.4383759713
 O          4.7290553733       -0.8345210839       -1.7569292997
 O          4.3922316681       -1.5784131296        0.5496433711
 C          4.9468961914        0.9888746243        0.1439251451
 C          5.1344897886        1.1715386981        1.5008893556
 C          5.6776393342        2.3659678646        1.9473905084
 C          6.0195486630        3.3524815560        1.0346288875
 C          5.8248484149        3.1543598744       -0.3243023620
 C          5.2832221796        1.9621118302       -0.7776394422
 H          5.1233973332        1.7595505670       -1.8237349717
 H          6.0944803552        3.9228420605       -1.0306538299
 H          6.4433964099        4.2803178006        1.3849497474
 H          5.8327721738        2.5215953497        3.0029070151
 H          4.8642425638        0.3735605562        2.1740613900
 H          2.3429499935        0.5330705242        0.1725835785
 H          2.8239739785       -2.1954511236       -2.1557889334
 H          1.1969048056       -4.0492660398       -2.3549790067
 H         -0.8443368559       -4.0634049862       -0.9903503892
 H         -1.3272063951       -1.8290801710        1.8606023749
 C         -2.3980791263       -3.4430547070        0.9598759837
 C         -1.8539017028       -4.5444739572        1.8180505914
 C         -3.0728013941       -3.7887710898        2.2521001699
 H         -4.0297610615       -4.2872262790        2.2155783039
 H         -2.9767349962       -3.0883185884        3.0689035871
 H         -1.9725655365       -5.5644095951        1.4857418255
 H         -0.9271130931       -4.3572800037        2.3393051722
 H         -2.9103273143       -3.7143285555        0.0447840273
