  62
        -98.94008689
 C         -2.0127469265        0.3013568921        0.5568363169
 C         -1.2537445459        1.2225206961        1.3176112305
 C         -0.8634993468        2.4785636508        0.6543328433
 C         -1.2188736960        2.6736642991       -0.6267840603
 C         -0.8922845301        3.8525369103       -1.5020654820
 C          0.3840555198        3.5859358407       -2.3189044707
 C          1.6800929266        3.9991104174       -1.6246386422
 H          2.5068011327        3.6661912585       -2.2566094767
 H          1.7279872897        5.0886311460       -1.5602339075
 C          1.8616633000        3.4027139168       -0.2270053150
 H          2.9284286407        3.4025541105        0.0066630769
 H          1.5388515385        2.3602931271       -0.2532247262
 C          1.1097178079        4.1782874266        0.8655898872
 H          1.8005071957        4.4150766214        1.6774561794
 H          0.7765335262        5.1316977424        0.4555047182
 C         -0.0836939756        3.4486335527        1.5004348379
 H          0.2630740609        2.8550270883        2.3524424735
 H         -0.7789063869        4.1927307559        1.9042172837
 H          0.3156492828        4.1225722056       -3.2677227039
 H          0.4240627846        2.5162736386       -2.5451970074
 H         -1.7306947887        3.9672008738       -2.1925748701
 H         -0.7986146690        4.7590895366       -0.9106991434
 O         -1.9225033262        1.7515333357       -1.3351536019
 C         -2.2906146092        0.5318596259       -0.7923411902
 O         -2.8630058779       -0.2231819906       -1.6005936179
 H          0.1666628727       -1.2500441681        0.4713801604
 C         -0.4185010578       -2.0201930594       -0.0058652303
 C         -1.7730933601       -2.1135471433        0.2888279488
 C         -2.5163149476       -3.1184698271       -0.3119510947
 C         -1.9144911099       -3.9755874635       -1.2187243645
 C         -0.5846837053       -3.8275067516       -1.5675057125
 C          0.1695839522       -2.8279494297       -0.9609438491
 N          1.5163116874       -2.6203396033       -1.2909591733
 S          2.1857820763       -1.0831809214       -1.2218503772
 O          1.2105931321       -0.0399766682       -1.4317542885
 O          3.2783789568       -1.1331424896       -2.1719342987
 C          2.8727653823       -1.0159422333        0.4202501763
 C          3.9106226373       -1.8828304313        0.7053465329
 C          4.4683066287       -1.8707269878        1.9728504724
 C          3.9815676054       -0.9957527940        2.9330613155
 C          2.9424734099       -0.1297669130        2.6318901050
 C          2.3818311350       -0.1377662765        1.3641135405
 H          1.5660068057        0.5214913851        1.1097969476
 H          2.5523981238        0.5489936943        3.3735515060
 H          4.4132143023       -0.9870231572        3.9214628693
 H          5.2777019116       -2.5423433662        2.2095623056
 H          4.2638538584       -2.5389775519       -0.0724843326
 H          1.8467290472       -3.1420592387       -2.0890362436
 H         -0.1347924782       -4.4675824447       -2.3112903337
 H         -2.5008616432       -4.7513988473       -1.6877652056
 H         -3.5692842246       -3.2091852639       -0.1009973547
 C         -2.3319183042       -1.0441265745        1.1926530135
 H         -1.7443760577       -1.0447406893        2.1263477013
 C         -3.7801649155       -1.2584842051        1.5965004658
 C         -4.6608418934       -0.0954667310        1.9411096139
 C         -4.9372240223       -0.9065260932        0.7124639706
 H         -5.7973318106       -1.5604474949        0.7166540829
 H         -4.7191600811       -0.4775189599       -0.2521573080
 H         -4.2479831095        0.8950528002        1.8135522845
 H         -5.3304654110       -0.1866535449        2.7831167463
 H         -3.8962963128       -2.1457662899        2.2118087198
 O         -0.8977601373        0.9979043811        2.5074464059
