  62
        -98.94450993
 C          2.6291293493        1.2699329204        0.1130859767
 C          2.6035230622        0.2938536436       -0.9124376563
 C          3.5092104780       -0.8513494315       -0.7323292612
 C          4.2996286432       -0.9104568573        0.3541070951
 C          5.2261655889       -2.0434837084        0.6847455428
 C          4.5274561919       -3.0969312946        1.5555722666
 C          3.1626399812       -3.5346802942        1.0231910156
 H          2.7805202594       -4.3026926788        1.6992864637
 H          2.4682492674       -2.6921815918        1.0743112152
 C          3.1853833512       -4.0834426246       -0.4102388174
 H          4.2030888977       -4.3646810390       -0.6838129793
 H          2.5762217766       -4.9890493951       -0.4472543643
 C          2.6230944912       -3.1283621358       -1.4650292614
 H          1.6382886809       -2.7719771012       -1.1486595613
 H          2.4817373906       -3.6913732061       -2.3918461368
 C          3.4976038282       -1.9122435009       -1.7967051482
 H          4.5132304277       -2.2416026436       -2.0251152759
 H          3.0806429222       -1.4379340388       -2.6899829828
 H          5.1823538881       -3.9661733102        1.6377152244
 H          4.3857569284       -2.6813393179        2.5557728947
 H          5.5809018361       -2.4972625963       -0.2384748295
 H          6.0792447151       -1.6401963971        1.2328882163
 O          4.3084642912        0.0514759410        1.3107844282
 C          3.4681737655        1.1467738831        1.2253774435
 O          3.5643116390        1.9391295308        2.1833511870
 H         -0.1694900310        1.4019178204       -1.5300973586
 C         -0.5170655007        1.5069034822       -0.5140890786
 C          0.3212163330        2.0603475419        0.4424126913
 C         -0.1306289028        2.1417238388        1.7557772487
 C         -1.3901236232        1.6838787357        2.0978818447
 C         -2.2209789787        1.1271281317        1.1412766184
 C         -1.7723340676        1.0268046656       -0.1685275491
 N         -2.6005066033        0.4394835607       -1.1439544390
 S         -3.2028698519       -1.0926771527       -0.8029280932
 O         -2.3391326722       -1.8158158608        0.1024571379
 O         -3.4463776854       -1.7053471681       -2.0907678190
 C         -4.7682818196       -0.7593904607       -0.0207487546
 C         -5.6831381714        0.0184226746       -0.7033626586
 C         -6.9076399448        0.2852964552       -0.1123420979
 C         -7.1966931305       -0.2297671550        1.1426919668
 C         -6.2695330987       -1.0127607879        1.8130911981
 C         -5.0420329501       -1.2824424975        1.2277222084
 H         -4.2877304368       -1.8808942048        1.7136002351
 H         -6.4958376451       -1.4131817370        2.7882762055
 H         -8.1502457153       -0.0200515917        1.6010422379
 H         -7.6312201911        0.8935134782       -0.6307127439
 H         -5.4203741509        0.3955917416       -1.6774784358
 H         -2.1866922698        0.4492435812       -2.0660963877
 H         -3.1996029603        0.7587176841        1.4027385418
 H         -1.7275577068        1.7568664327        3.1206219698
 H          0.5264064147        2.5509550324        2.5102867655
 C          1.7255968174        2.4954471924        0.0989323328
 H          2.0866295417        3.1381267108        0.9124713425
 C          1.8105226928        3.2711576966       -1.1996228837
 C          1.2990122949        4.6787674960       -1.2388176448
 C          2.7725922690        4.4144640595       -1.3044729634
 H          3.2854122653        4.5706223449       -2.2417239688
 H          3.3727239636        4.6441492706       -0.4359726938
 H          0.7974258613        5.0202588179       -2.1312206470
 H          0.8986505708        5.0884997288       -0.3238866070
 H          1.6772830215        2.6596346566       -2.0821127254
 O          1.8763328967        0.3578855092       -1.9399985285
