  62
        -98.94385762
 C          1.7846322351        0.6529746720        0.5015794985
 C          3.0615040533        0.7086756452        1.1092011200
 C          4.2112893996        0.5623851086        0.2069294611
 C          3.9954497671        0.4000767472       -1.1115083484
 C          5.0712654762        0.1838849154       -2.1352763107
 C          5.3559917737       -1.3112514803       -2.3356356986
 C          5.5696533220       -2.0799539787       -1.0316404764
 H          4.6353680253       -2.0886409874       -0.4654412646
 H          5.7926888294       -3.1156824406       -1.2970699531
 C          6.6933325450       -1.5258931807       -0.1445961022
 H          7.2984015596       -2.3603742001        0.2162030294
 H          7.3479900992       -0.8829677500       -0.7341345442
 C          6.2086707591       -0.7611848437        1.0885893778
 H          5.4819181108       -1.3686897863        1.6341352331
 H          7.0651214268       -0.6051705362        1.7500080913
 C          5.5831483741        0.6130970733        0.8184286559
 H          5.4630042841        1.1174786253        1.7818181190
 H          6.2585211666        1.2091653222        0.2012229941
 H          4.5089562691       -1.7582319381       -2.8613815098
 H          6.2397063409       -1.4127659355       -2.9682169845
 H          4.7357357105        0.6101872707       -3.0821561756
 H          5.9768199100        0.6972517082       -1.8177655440
 O          2.7553210228        0.3686199027       -1.6612573688
 C          1.6182335508        0.4886186101       -0.8740250062
 O          0.5489436384        0.4353443838       -1.5071596087
 O          3.2301979627        0.8717109203        2.3483312503
 C          0.5555249277        0.8017397959        1.3763825345
 C         -0.3690037478       -0.3852382571        1.2571485796
 C          0.1425740100       -1.6576276604        1.0217435813
 C         -0.6951868559       -2.7490611953        0.8879134756
 C         -2.0663640708       -2.6016537180        1.0034678047
 C         -2.5863388823       -1.3440063946        1.2695113242
 C         -1.7433022755       -0.2470020363        1.3954453634
 H         -2.1686774244        0.7247846887        1.5949061948
 N         -3.9892355213       -1.1976647102        1.3844717246
 S         -4.8277564438       -1.2213872480       -0.0684937898
 O         -6.2234159532       -1.0729028934        0.2760171156
 O         -4.4650682870       -2.4126042620       -0.7904763034
 C         -4.2555344992        0.2394858197       -0.9157676247
 C         -5.0207681777        1.3887453480       -0.8644150171
 C         -4.5237874943        2.5497023040       -1.4334917263
 C         -3.2671512423        2.5473471340       -2.0216825929
 C         -2.5090967457        1.3872376262       -2.0608992921
 C         -3.0075841103        0.2192271276       -1.5052210755
 H         -2.4326552255       -0.6924489327       -1.5234809500
 H         -1.5193318205        1.3755388058       -2.4895409257
 H         -2.8729443271        3.4555316726       -2.4506581634
 H         -5.1103042248        3.4541997519       -1.4086813373
 H         -5.9874869973        1.3466611565       -0.3887384501
 H         -4.2607199859       -0.3693235866        1.8974389032
 H         -2.7372937295       -3.4354866465        0.8782560776
 H         -0.2767409680       -3.7246075091        0.6902883531
 H          1.2128459880       -1.7827547036        0.9295871248
 H          0.9369744419        0.8361723935        2.4086319031
 C         -0.1416568984        2.1143201311        1.0716569661
 C         -0.7974599053        2.9062463263        2.1625980112
 C          0.4809236996        3.3906307020        1.5493643913
 H          0.4519029311        4.2538560987        0.9019091421
 H          1.3892604219        3.3100856007        2.1286924116
 H         -1.7070517947        3.4419948998        1.9350784304
 H         -0.7546913830        2.5111820951        3.1666588054
 H         -0.6023966993        2.1183747370        0.0899569459
