  62
        -98.93527130
 C         -1.7552110316       -0.7819536515       -0.1401801410
 C         -2.9792072211       -1.3999306579        0.2241034848
 C         -4.2007077520       -0.8219860877       -0.3481753144
 C         -4.0996671623        0.2387087005       -1.1694207054
 C         -5.2629327206        0.9603433804       -1.7847905069
 C         -5.7378499666        2.1158407228       -0.8929096368
 C         -5.9502920290        1.7214915362        0.5686525339
 H         -4.9857551921        1.4607841508        1.0103836605
 H         -6.3153923399        2.6065914447        1.0941001896
 C         -6.9333452457        0.5610671918        0.7768581592
 H         -7.6090086298        0.8172006777        1.5956042655
 H         -7.5439530654        0.4279373990       -0.1168791073
 C         -6.2735236257       -0.7696608153        1.1425631821
 H         -5.5867393777       -0.6201896572        1.9793101089
 H         -7.0553014799       -1.4556854242        1.4791781729
 C         -5.5094038012       -1.4681393917        0.0109197151
 H         -6.1507581842       -1.5511406906       -0.8688947422
 H         -5.2607607458       -2.4773142809        0.3519195292
 H         -4.9883258232        2.9099700505       -0.9277787654
 H         -6.6689825807        2.5092467149       -1.3049858626
 H         -4.9459752203        1.3635217058       -2.7481161261
 H         -6.0758571667        0.2550270719       -1.9467690990
 O         -2.9126370200        0.8042324443       -1.5000043639
 C         -1.7080729550        0.3137303960       -1.0030436567
 O         -0.7125362665        0.9390036904       -1.4063472947
 O         -3.0449295261       -2.3963434390        0.9938212023
 C         -0.4822379296       -1.3854803383        0.4410037507
 C          0.3257343647       -0.3360792967        1.1615316749
 C         -0.0160893031       -0.0913960977        2.4927017466
 C          0.6261569486        0.8806392947        3.2337893086
 C          1.6430942039        1.6300630500        2.6704321017
 C          1.9923942884        1.4028172211        1.3447956847
 C          1.3403041664        0.4264958153        0.6005131146
 H          1.6106793459        0.3288332415       -0.4342103122
 N          3.0075532808        2.1597672969        0.7530410174
 S          3.8847145318        1.6962302708       -0.5768349642
 O          5.0411346369        2.5694233695       -0.5401108346
 O          3.0991816873        1.7553970454       -1.7832490783
 C          4.4214333259        0.0184323735       -0.2885405706
 C          4.5479050635       -0.8200155370       -1.3778971844
 C          5.0187045049       -2.1091132635       -1.1858888659
 C          5.3507130529       -2.5383237826        0.0893879182
 C          5.2172603527       -1.6856885281        1.1743670159
 C          4.7544971065       -0.3926318460        0.9870752875
 H          4.6457349893        0.2875993473        1.8157678439
 H          5.4718362768       -2.0229006720        2.1662146782
 H          5.7127722195       -3.5430529723        0.2390807983
 H          5.1190200097       -2.7718780001       -2.0299955914
 H          4.2634429772       -0.4500353591       -2.3497666565
 H          3.5055188221        2.7963955223        1.3547299899
 H          2.1499102941        2.3927605359        3.2415504544
 H          0.3378320539        1.0537250704        4.2594638456
 H         -0.8115894264       -0.6711283989        2.9399403623
 H         -0.8591232323       -2.0677944778        1.2203023492
 C          0.1948567655       -2.3009560676       -0.5700827752
 C          1.0031567424       -1.8782466356       -1.7584632539
 C          1.6701405161       -2.5550905184       -0.5977806595
 H          2.0151978015       -3.5693056704       -0.7295665795
 H          2.2912390293       -1.9594691287        0.0520908148
 H          0.8708508637       -2.4469697493       -2.6686014784
 H          1.1639566616       -0.8286247291       -1.9436753214
 H         -0.4402469432       -3.1670912516       -0.7423628151
