  62
        -98.94513855
 C         -2.2736198279       -0.7271429797       -0.0155530972
 C         -3.2792329905       -0.6809584295        0.9828362587
 C         -4.1665930348        0.4881773174        0.9541506310
 C         -3.9575359937        1.4482136633        0.0348736813
 C         -4.8117705380        2.6699923705       -0.1376579404
 C         -5.9442354640        2.4194956230       -1.1435350533
 C         -6.7314296420        1.1355171434       -0.8811412099
 H         -7.5218212757        1.0799714876       -1.6327746367
 H         -6.0752616156        0.2768593423       -1.0407640407
 C         -7.3511538784        1.0455147284        0.5203784889
 H         -7.3917475971        2.0374042949        0.9718087817
 H         -8.3792846754        0.6898078797        0.4261975109
 C         -6.6329831089        0.0855453451        1.4705651587
 H         -7.2707039646       -0.0675357864        2.3451570800
 H         -6.5063613358       -0.8847572513        0.9839484953
 C         -5.2632929306        0.5517999004        1.9799145575
 H         -4.9597155373       -0.1243922048        2.7843535027
 H         -5.3470998827        1.5594321056        2.3919850561
 H         -6.6212983144        3.2753258134       -1.1202588343
 H         -5.5101418170        2.3568899756       -2.1441653649
 H         -5.2254799061        2.9565324788        0.8273064498
 H         -4.1810357232        3.4803219636       -0.5073879873
 O         -2.9593322531        1.3891213293       -0.8826329890
 C         -2.0984721671        0.3020384922       -0.9405859820
 O         -1.2479515892        0.3791855899       -1.8487507276
 O         -3.4275719471       -1.5779627444        1.8547169805
 C         -1.3359045834       -1.9237452433       -0.0283214699
 C          0.0375663414       -1.4508668027        0.3774440545
 C          0.3136372031       -1.2532751835        1.7279401768
 C          1.5392597037       -0.7600727396        2.1324526322
 C          2.5126579866       -0.4442842221        1.1998707241
 C          2.2397783658       -0.6190659367       -0.1494300444
 C          1.0151265337       -1.1363368486       -0.5527655150
 H          0.8133194228       -1.2558766690       -1.6053188196
 N          3.2162079177       -0.2932822505       -1.1057094995
 S          4.0470454601        1.1555333839       -0.9450661300
 O          3.2618450712        2.1584014492       -0.2631215916
 O          4.4942658566        1.4844307735       -2.2813367320
 C          5.4640173925        0.7124230015        0.0410084009
 C          6.2396121607       -0.3521133487       -0.3751024522
 C          7.3484751112       -0.7066847627        0.3763244158
 C          7.6640056270        0.0069820866        1.5229876202
 C          6.8783338638        1.0760271785        1.9251943705
 C          5.7668451303        1.4350587648        1.1783404700
 H          5.1234087628        2.2549274562        1.4561587565
 H          7.1250802782        1.6304503144        2.8163935174
 H          8.5272339634       -0.2714018675        2.1066184451
 H          7.9616121908       -1.5376230670        0.0667071442
 H          5.9618192652       -0.8787779217       -1.2726373194
 H          2.9026899176       -0.4202279983       -2.0574760298
 H          3.4663997199       -0.0478068824        1.5071529364
 H          1.7406449956       -0.6164263972        3.1831661210
 H         -0.4538494455       -1.4801666337        2.4548269556
 H         -1.7113477360       -2.5928929444        0.7575691915
 C         -1.3696944793       -2.6596013557       -1.3510638660
 C         -0.7933162433       -4.0404292760       -1.4360730689
 C         -2.2767685879       -3.8418017419       -1.5066422003
 H         -2.7736350687       -3.9877281408       -2.4541556040
 H         -2.8728937728       -4.1291767778       -0.6530003514
 H         -0.2695734812       -4.3267315711       -2.3352373722
 H         -0.3804622227       -4.4618805687       -0.5322133980
 H         -1.2584564356       -2.0077952126       -2.2093037228
