  62
        -98.93205263
 C         -2.5734505377       -1.0163355532        0.5294881263
 C         -2.8269613777        0.1791713725        1.2486278942
 C         -4.1098745211        0.8554655950        0.9950006291
 C         -4.9641354751        0.3133873531        0.1101599078
 C         -6.3002733116        0.8473300042       -0.3271476998
 C         -6.1573358283        1.7065046375       -1.5947188280
 C         -5.8421699521        3.1800716724       -1.3410277661
 H         -5.6417123669        3.6411949003       -2.3108840858
 H         -6.7244758269        3.6685902019       -0.9221119880
 C         -4.6511774361        3.4432878440       -0.4158886615
 H         -3.8322776008        2.7672417349       -0.6694176429
 H         -4.2996074971        4.4597009824       -0.6036008401
 C         -5.0016509146        3.3051654975        1.0732377546
 H         -4.6774915213        4.2017665432        1.6057115871
 H         -6.0848515776        3.2564335616        1.1820115465
 C         -4.3563423823        2.1098753490        1.7884470883
 H         -4.9577752006        1.8533191812        2.6671332125
 H         -3.3689590795        2.3990815103        2.1617560010
 H         -5.3727955138        1.2629403685       -2.2133619095
 H         -7.0891875889        1.6526571712       -2.1613134745
 H         -6.9175110215       -0.0216924556       -0.5645623042
 H         -6.7747164686        1.4046623240        0.4750298001
 O         -4.6786106827       -0.8288355745       -0.5699129047
 C         -3.4900978729       -1.5179499419       -0.3946785416
 O         -3.3984091800       -2.5351766238       -1.1089588843
 O         -2.0097559811        0.6616581902        2.0794628298
 C         -1.2561735623       -1.7165691140        0.8171565424
 C         -0.2145675673       -1.3773526554       -0.2233401960
 C         -0.3361552120       -1.8033299721       -1.5417292606
 C          0.6381407262       -1.4862655724       -2.4708331059
 C          1.7484850502       -0.7435941580       -2.1094333308
 C          1.8800151516       -0.3135988969       -0.7960763026
 C          0.9018350124       -0.6365777082        0.1369539777
 H          0.9995442914       -0.2902516715        1.1571916941
 N          2.9950212340        0.4575839028       -0.4237193307
 S          4.4998493071       -0.0073509167       -1.0366232162
 O          4.6444597338        0.5488800756       -2.3586954107
 O          4.6544848295       -1.4409251332       -0.9346015059
 C          5.6031083182        0.8198191245        0.0916974628
 C          5.8864354669        2.1569454159       -0.1128251902
 C          6.7292632282        2.8054934515        0.7756576613
 C          7.2706027220        2.1109708134        1.8474176490
 C          6.9772160049        0.7692047765        2.0391156707
 C          6.1341405606        0.1145534542        1.1549933144
 H          5.8864059245       -0.9297235220        1.2592120679
 H          7.4019207924        0.2313403124        2.8714119395
 H          7.9280578215        2.6177420451        2.5360817818
 H          6.9621534228        3.8478680820        0.6293119366
 H          5.4507743077        2.6532149219       -0.9642503622
 H          3.0350295761        0.6178928002        0.5734917967
 H          2.5162965463       -0.4972211704       -2.8253549589
 H          0.5328602890       -1.8222642396       -3.4917985191
 H         -1.2060408379       -2.3714268880       -1.8333626175
 H         -0.9168970108       -1.2965060786        1.7737426774
 C         -1.3915835665       -3.2178492972        0.9787247607
 C         -0.3264236792       -3.9636824561        1.7229254216
 C         -1.6834795563       -3.7857332576        2.3336923039
 H         -2.3370281593       -4.6422552890        2.4020782194
 H         -1.7862813670       -3.0918727003        3.1553775639
 H         -0.0433046525       -4.9437603257        1.3711690547
 H          0.4928535363       -3.3907255803        2.1304925859
 H         -1.8474110974       -3.7056096565        0.1275862441
