  62
        -98.94667134
 C         -1.4903001465       -1.6272299291       -0.1135771165
 C         -1.5909374129       -0.5430198021       -1.0209159733
 C         -2.8829321896        0.1589117104       -1.0368099302
 C         -3.8943812446       -0.2635174400       -0.2585867734
 C         -5.2787391703        0.3234015044       -0.1996147742
 C         -5.4102600184        1.5280205372        0.7416815870
 C         -4.7545714178        2.8156598633        0.2415105855
 H         -5.1037739501        3.0326748888       -0.7685394648
 H         -5.1007744804        3.6252058277        0.8871889727
 C         -3.2196356275        2.7909440883        0.2620242752
 H         -2.8730865004        1.9799548860        0.9074182972
 H         -2.8408260801        3.7192256154        0.6961161759
 C         -2.5630424710        2.6404133915       -1.1103107489
 H         -1.4806715354        2.6000289587       -0.9593950456
 H         -2.7837560265        3.5204349910       -1.7195569083
 C         -2.9965424542        1.3886853595       -1.8856893705
 H         -4.0167838910        1.5081652366       -2.2512507093
 H         -2.3286266549        1.2680653150       -2.7420808647
 H         -4.9894056732        1.2602068302        1.7136668715
 H         -6.4769083589        1.7184573489        0.8814380114
 H         -5.9359955091       -0.4698712459        0.1634117139
 H         -5.5980167213        0.6081858640       -1.2025525832
 O         -3.7728274329       -1.3321761485        0.5730916920
 C         -2.5710961978       -2.0090334399        0.6877301473
 O         -2.5918574174       -2.9413766055        1.5177474269
 O         -0.6740989336       -0.1649325359       -1.7962606689
 C         -0.2288433586       -2.4487890970        0.0902780436
 C          0.7065499685       -1.8157894814        1.0954031723
 C          1.3521619819       -2.6035199768        2.0424288826
 C          2.2283428926       -2.0380064241        2.9503646734
 C          2.4868223371       -0.6796984362        2.9238795708
 C          1.8434938773        0.1189314000        1.9846931642
 C          0.9591619899       -0.4522180032        1.0794337897
 H          0.4554987690        0.1843138122        0.3709626555
 N          2.0714940819        1.5006029807        1.9533958575
 S          2.0981077367        2.3354461024        0.5029552015
 O          2.8320945639        3.5447472916        0.8172227213
 O          0.7600908106        2.5279337456        0.0099673886
 C          3.0714136168        1.3215692483       -0.5937462049
 C          4.4230048611        1.2234234790       -0.3217741718
 C          5.2142245975        0.4206301477       -1.1254307071
 C          4.6419187408       -0.2693646137       -2.1838698202
 C          3.2862973637       -0.1551602811       -2.4456031447
 C          2.4865101995        0.6469746209       -1.6445761654
 H          1.4256752432        0.7404196276       -1.8190279251
 H          2.8385970804       -0.6892082575       -3.2690387599
 H          5.2558055844       -0.8977391124       -2.8098160793
 H          6.2701211059        0.3337628902       -0.9258327059
 H          4.8316977937        1.7880079750        0.5005967419
 H          2.7896489203        1.8267190019        2.5829183250
 H          3.1695107436       -0.2347545436        3.6315077301
 H          2.7173650298       -2.6598404180        3.6844852059
 H          1.1488643950       -3.6633524760        2.0751415214
 H         -0.5644770866       -3.4070887771        0.5110923253
 C          0.5303123831       -2.7312124802       -1.1930667021
 C          1.3886382926       -3.9548082558       -1.2884794612
 C          0.1084944576       -3.8742289435       -2.0640472200
 H          0.1536184130       -3.7484300226       -3.1352281674
 H         -0.7281942506       -4.4721228076       -1.7318917353
 H          2.3216369631       -3.8858290906       -1.8259115372
 H          1.4198028224       -4.6171548164       -0.4370254178
 H          0.8773872428       -1.8333108679       -1.6849543259
