  62
        -98.93940903
 C          2.3677247254        1.1862228671       -0.0548727171
 C          3.4618507853        0.8741392477        0.7876847840
 C          4.4218344491       -0.1262688003        0.2905949592
 C          4.2021207797       -0.7140094122       -0.9003632732
 C          5.0083409622       -1.7362296925       -1.6746378496
 C          6.1631669793       -2.4839832452       -1.0137690660
 C          5.7433624044       -3.4776738099        0.0694895540
 H          5.2388611174       -4.3199413439       -0.4108020632
 H          6.6454409984       -3.8611745368        0.5510039848
 C          4.8024379671       -2.9301794891        1.1398396338
 H          3.8635260602       -2.6167509152        0.6781516338
 H          4.5646914707       -3.7479694775        1.8256243043
 C          5.3583291290       -1.7752899797        1.9700099034
 H          6.3090896146       -2.0693131606        2.4188097450
 H          4.6506310967       -1.5820001754        2.7806405001
 C          5.5632783015       -0.4543927882        1.2100129471
 H          6.5060079930       -0.4524103901        0.6686082418
 H          5.6050783543        0.3541048588        1.9456003259
 H          6.8936929905       -1.7799000704       -0.6265487937
 H          6.6599370752       -3.0511318978       -1.8056624842
 H          4.2821428990       -2.4618387175       -2.0553791518
 H          5.3961591862       -1.2034030799       -2.5499467765
 O          3.1210894233       -0.3931647027       -1.6707260299
 C          2.1840722355        0.5496476688       -1.2805185960
 O          1.2669599806        0.7221796985       -2.1071878629
 O          3.6386231584        1.4190575347        1.9095910456
 C          1.3599663802        2.2160639479        0.4288421455
 C          0.0583866105        1.5087130641        0.7122854195
 C         -0.0946596993        0.8251411386        1.9157540924
 C         -1.2492249223        0.1138780208        2.1813044778
 C         -2.2722512129        0.0603839535        1.2498950790
 C         -2.1208854396        0.7222013437        0.0395932268
 C         -0.9688780455        1.4551224684       -0.2161374493
 H         -0.8607973000        1.9543211202       -1.1659218070
 N         -3.1480937819        0.6680767011       -0.9178223198
 S         -3.8601908101       -0.8155919999       -1.2452050086
 O         -2.9517036797       -1.9158127964       -1.0175180287
 O         -4.3970837277       -0.6899254323       -2.5830162135
 C         -5.2149641034       -0.8917532765       -0.0896156645
 C         -6.0756829855        0.1863903300       -0.0203349220
 C         -7.1415495299        0.1361161578        0.8636814723
 C         -7.3306266171       -0.9860596639        1.6566090340
 C         -6.4602150919       -2.0618295274        1.5727228350
 C         -5.3910875347       -2.0172729903        0.6912031059
 H         -4.6847444430       -2.8268683591        0.5968946451
 H         -6.6082272268       -2.9337921444        2.1894237584
 H         -8.1608435396       -1.0224190542        2.3441542639
 H         -7.8200242912        0.9711535666        0.9321178880
 H         -5.8951065465        1.0383765289       -0.6540974911
 H         -2.9188310919        1.1481157628       -1.7765385806
 H         -3.1705279611       -0.5022948496        1.4448545739
 H         -1.3555971797       -0.4071108736        3.1206842367
 H          0.7123975077        0.8495845927        2.6347296850
 H          1.7611340340        2.5873601443        1.3814009687
 C          1.2321658548        3.3793235904       -0.5318514776
 C          0.5652370005        4.6398741592       -0.0710616482
 C          2.0463665669        4.6146288932       -0.2962065691
 H          2.4484028712        5.1361669833       -1.1519057885
 H          2.6959907379        4.6270420478        0.5665432366
 H         -0.0520887379        5.1827934831       -0.7702844329
 H          0.2075514001        4.6678779116        0.9469429913
 H          1.0880080980        3.0737527383       -1.5612370672
