  62
        -98.93384900
 C         -2.2847301521       -1.1941142732       -0.5350200922
 C         -3.3044529394       -0.7089662560        0.3258902830
 C         -3.8695783900        0.6064300638        0.0038958659
 C         -3.4167147599        1.2754916334       -1.0710652148
 C         -3.9080811279        2.6042552298       -1.5809240942
 C         -3.6617236916        3.8163909675       -0.6619638868
 C         -4.8352776637        4.1543552676        0.2659582318
 H         -5.7544379888        3.7682493655       -0.1762533882
 H         -4.9419802118        5.2398798889        0.3145398997
 C         -4.7127470796        3.6538152885        1.7083160931
 H         -5.6959767657        3.7384773902        2.1761031298
 H         -4.0301648930        4.3076323404        2.2560956945
 C         -4.2062272940        2.2212123765        1.8787331172
 H         -4.3555547420        1.9284560666        2.9199953354
 H         -3.1274315428        2.1889870685        1.7036391345
 C         -4.8764527488        1.1865793080        0.9537006986
 H         -5.7038978875        1.6371904921        0.4078161367
 H         -5.2637041649        0.3544651261        1.5449231232
 H         -3.4837791994        4.6746001358       -1.3120685582
 H         -2.7505729432        3.6557390006       -0.0852303240
 H         -3.3865748110        2.7629533717       -2.5270148811
 H         -4.9759277010        2.5240398285       -1.7965400108
 O         -2.4427341743        0.7753118921       -1.8762801111
 C         -1.8358399483       -0.4454402502       -1.6226992730
 O         -0.9385127617       -0.7257143163       -2.4445233704
 H          0.6129192237       -1.3968029886       -1.0173338589
 C          0.6881185219       -1.7425619686        0.0034135920
 C         -0.4029774930       -2.3667032944        0.5915938564
 C         -0.2949495360       -2.7828198434        1.9131087426
 C          0.8751638281       -2.5777285384        2.6240377951
 C          1.9580561820       -1.9489611427        2.0356934986
 C          1.8548378002       -1.5218557586        0.7187275369
 N          2.9477475643       -0.8521172249        0.1115485199
 S          3.2199000791        0.7072284013        0.7114377612
 O          3.4115010379        0.6214619587        2.1364825465
 O          2.1769620479        1.6075056130        0.2618632354
 C          4.7629741158        1.1051140799       -0.0852119730
 C          5.9330528697        0.6139384526        0.4611192402
 C          7.1344751463        0.8895763487       -0.1716424047
 C          7.1454845896        1.6461028933       -1.3341599535
 C          5.9627056233        2.1319956470       -1.8703946681
 C          4.7573028405        1.8584840454       -1.2428239960
 H          3.8143624186        2.2217767515       -1.6200277518
 H          5.9735279715        2.7214123822       -2.7731768771
 H          8.0815799173        1.8604321734       -1.8251517592
 H          8.0565416406        0.5147788164        0.2424053745
 H          5.8758519618        0.0377510285        1.3694754050
 H          2.7892547709       -0.7593582567       -0.8852442791
 H          2.8649851808       -1.7609428806        2.5857267528
 H          0.9430337147       -2.9062458784        3.6500972701
 H         -1.1442463819       -3.2512700641        2.3890335451
 C         -1.6881597142       -2.5473513086       -0.1811430918
 H         -2.4191800870       -3.0142585479        0.4925922751
 C         -1.4867952363       -3.4577152802       -1.3761226728
 C         -1.3879943301       -4.9359579622       -1.1526827050
 C         -2.6038581411       -4.3566049443       -1.8098379642
 H         -2.7501993333       -4.5204441809       -2.8668449269
 H         -3.5226233252       -4.3207543157       -1.2427787986
 H         -1.4830358694       -5.2952826929       -0.1392870151
 H         -0.6966945344       -5.5021016838       -1.7575206868
 H         -0.8716224658       -3.0220935912       -2.1523095900
 O         -3.7334747250       -1.3588052628        1.3165330048
