  62
        -98.93789340
 C         -1.6271994141       -1.5470664595        0.1879743954
 C         -1.9148777653       -0.7204075086       -0.9233015423
 C         -2.8745795102        0.3789369851       -0.6978592080
 C         -3.3689300200        0.5898190652        0.5333448324
 C         -4.3752659623        1.6124272932        1.0012809822
 C         -4.3373594072        3.0114154255        0.3774549268
 C         -2.9289996034        3.5595020625        0.1059693797
 H         -2.1812922857        2.9244416279        0.5820741394
 H         -2.8405639924        4.5523940357        0.5502834626
 C         -2.6087039547        3.6834423774       -1.3846302721
 H         -1.7751669341        4.3794461634       -1.5081753448
 H         -3.4725820164        4.1126764629       -1.8969202648
 C         -2.2140209809        2.3805267713       -2.0776227623
 H         -1.2358765965        2.0536197826       -1.7145047998
 H         -2.1012930045        2.5887365386       -3.1446359395
 C         -3.1992425132        1.2125431107       -1.9053422987
 H         -3.0846972205        0.5483616900       -2.7665076438
 H         -4.2265258510        1.5675695098       -1.8820035689
 H         -4.8584933127        3.6744974300        1.0703632455
 H         -4.9093564956        3.0171043013       -0.5490034711
 H         -5.3730940068        1.1864295073        0.8575295095
 H         -4.2174325039        1.6914291026        2.0801258449
 O         -3.0136323671       -0.1918444574        1.5928153886
 C         -2.1719093222       -1.2788883572        1.4480349303
 O         -1.9834655774       -1.9201477913        2.4990924030
 H          0.6616692505       -1.2483928213       -1.6344300841
 C          1.2733867380       -1.5282484935       -0.7894257968
 C          0.7322714431       -2.3308945661        0.2044077297
 C          1.5275618603       -2.6657111518        1.2938204168
 C          2.8302582209       -2.2054735508        1.3849298297
 C          3.3566366720       -1.3816687744        0.4059346731
 C          2.5641740478       -1.0357403816       -0.6806820997
 N          3.0554211125       -0.1132518797       -1.6286845310
 S          3.5245426818        1.3553218419       -0.9636332304
 O          3.1865713081        2.3621458741       -1.9451325686
 O          4.9173575301        1.2848626914       -0.5973106499
 C          2.5368600535        1.5401172019        0.5153323271
 C          3.1628507529        1.6874700765        1.7361099586
 C          2.3899238151        1.7628952073        2.8837603861
 C          1.0099724503        1.6723429054        2.7934675050
 C          0.3959681388        1.5259494452        1.5595027745
 C          1.1618538145        1.4666257128        0.4077227694
 H          0.7024533113        1.3526584041       -0.5621116431
 H         -0.6773138652        1.4361886302        1.4920874979
 H          0.4045211892        1.7081448704        3.6853955547
 H          2.8643708232        1.8790096022        3.8447152149
 H          4.2394865474        1.7311707589        1.7624710391
 H          2.4079153743        0.0437692857       -2.3890639076
 H          4.3567990517       -0.9843477518        0.4737427830
 H          3.4363362409       -2.4763732870        2.2355873542
 H          1.1103547741       -3.2730680430        2.0834410649
 C         -0.7118219674       -2.7631020455        0.1252130893
 H         -0.9364832217       -3.3472280548        1.0271944356
 C         -0.9642964587       -3.6381771804       -1.0867706566
 C         -0.5307101310       -5.0713967829       -1.0482452302
 C         -1.9888085117       -4.7274403590       -1.0027805819
 H         -2.5967406252       -4.9307436146       -1.8716014331
 H         -2.5130594233       -4.8501938195       -0.0660088695
 H         -0.0667982298       -5.4298462270       -0.1417936796
 H         -0.1341259962       -5.5136099848       -1.9492389555
 H         -0.8785219389       -3.1115005087       -2.0277558435
 O         -1.4214929761       -0.8733709661       -2.0736275871
