  62
        -98.94096770
 C          2.5895799923        1.3533862150        0.2593689593
 C          2.8060329273        0.5102058936       -0.8580321831
 C          3.6183253451       -0.6888462796       -0.6054673353
 C          4.1028478032       -0.9317921704        0.6248946753
 C          4.9494366861       -2.1071323324        1.0312487609
 C          4.1401144204       -3.3652302738        1.3746843494
 C          3.5167221564       -4.0845644513        0.1777663893
 H          4.2844948904       -4.2709781758       -0.5738959889
 H          3.1657003991       -5.0549383441        0.5341391542
 C          2.3363727537       -3.3418191883       -0.4646105483
 H          1.5158656353       -4.0411289735       -0.6444357587
 H          1.9552184074       -2.5871196354        0.2285916016
 C          2.6609573272       -2.6723833215       -1.8002372404
 H          1.7623774019       -2.1547218228       -2.1466652275
 H          2.9130371730       -3.4358945376       -2.5396802096
 C          3.8070882948       -1.6537313769       -1.7374370320
 H          4.7620175088       -2.1697452762       -1.6427702110
 H          3.8072067328       -1.0810896958       -2.6681578153
 H          4.8157467686       -4.0610369829        1.8773671577
 H          3.3543306608       -3.0931916750        2.0835077931
 H          5.6640620513       -2.3368786010        0.2406270707
 H          5.5011787537       -1.7992413839        1.9219524565
 O          3.8794209841       -0.0947999891        1.6720759287
 C          3.1061220139        1.0430826089        1.5214210444
 O          2.9614123746        1.7023795461        2.5701900356
 H          0.2571686172        0.9375651161       -1.2724768704
 C         -0.3128131656        1.3702904351       -0.4628761676
 C          0.3006948041        2.2845813895        0.3838228047
 C         -0.4415537494        2.8272059806        1.4251731098
 C         -1.7637916028        2.4612082402        1.6117672856
 C         -2.3697834756        1.5485786502        0.7669768344
 C         -1.6341301184        0.9975193961       -0.2742936919
 N         -2.2403486976        0.0557929134       -1.1319761000
 S         -2.7920544997       -1.3518826615       -0.3921230796
 O         -2.0418511194       -1.6449678290        0.8082924221
 O         -2.7776171994       -2.3641995053       -1.4254266823
 C         -4.4805175286       -0.9646885200        0.0190603621
 C         -4.9074761265       -1.0433299934        1.3299582976
 C         -6.2267994468       -0.7351237223        1.6242623351
 C         -7.0903131831       -0.3561766135        0.6078625985
 C         -6.6460874961       -0.2844590025       -0.7043001494
 C         -5.3289880323       -0.5920662566       -1.0053497933
 H         -4.9433044252       -0.5521962335       -2.0103430007
 H         -7.3206295153        0.0107362629       -1.4917489009
 H         -8.1156711255       -0.1152050216        0.8399232115
 H         -6.5736958563       -0.7905369099        2.6436035765
 H         -4.1975726180       -1.3358073916        2.0872075282
 H         -1.6550688334       -0.1829661282       -1.9210095563
 H         -3.3971433966        1.2554540088        0.9103612618
 H         -2.3276005889        2.8887732839        2.4267090611
 H          0.0313463204        3.5232062601        2.1025742079
 C          1.7567344867        2.6258380062        0.1969221629
 H          2.0739205824        3.2169126870        1.0699229118
 C          2.0378440770        3.4594371012       -1.0468730738
 C          1.0105208630        3.7717769438       -2.0900934380
 C          1.4705168425        4.8444377174       -1.1525713825
 H          2.0995090031        5.6353722332       -1.5317759309
 H          0.7851653140        5.1560437603       -0.3785682665
 H          0.0133003031        3.3804810758       -1.9640615134
 H          1.3388765832        3.8018611416       -3.1179787114
 H          3.0533424712        3.3236689710       -1.4038809187
 O          2.3556422469        0.7237657285       -2.0142642760
