  62
        -98.94379716
 C         -1.6475786831       -1.4226937163        0.4006244474
 C         -1.7719659411       -0.1788392009        1.0754517550
 C         -3.0432048894        0.5317304188        0.9056406879
 C         -4.0266736444       -0.0304051673        0.1805654339
 C         -5.4013862668        0.5392659460       -0.0431622223
 C         -5.4831506748        1.5497010289       -1.1953975257
 C         -4.8339265708        2.9057142298       -0.9165868835
 H         -5.1503931763        3.5821082433       -1.7130837365
 H         -5.2197001087        3.3054134347        0.0217618613
 C         -3.2998121256        2.8732920715       -0.8750662566
 H         -2.9423890241        1.9530860638       -1.3430925864
 H         -2.9026418991        3.7043701403       -1.4618141228
 C         -2.6977139687        2.9796745143        0.5261171669
 H         -1.6129332532        2.8923406022        0.4336248956
 H         -2.9284556153        3.9590217609        0.9510997048
 C         -3.1754892186        1.8989567964        1.5047870747
 H         -2.5429723675        1.9338915941        2.3951789821
 H         -4.2069588143        2.0871340455        1.8023571366
 H         -5.0295249631        1.1039378528       -2.0836553873
 H         -6.5418320806        1.7135645698       -1.4098333805
 H         -6.0522691246       -0.3053714591       -0.2795507540
 H         -5.7576602335        1.0048299678        0.8763664606
 O         -3.8804412525       -1.2335876680       -0.4305606688
 C         -2.6852164999       -1.9399980745       -0.3754303596
 O         -2.7051011550       -2.9886353937       -1.0500077407
 O         -0.8627673276        0.3085054262        1.7975859868
 C         -0.3222163559       -2.1449358112        0.5663738056
 C          0.6290400147       -1.8318434007       -0.5643007638
 C          0.2924203851       -2.0909675170       -1.8887791953
 C          1.1878319762       -1.8078072342       -2.9036159534
 C          2.4278570901       -1.2622157612       -2.6208672671
 C          2.7769656407       -1.0061797305       -1.2996806375
 C          1.8751446430       -1.2912254428       -0.2829965652
 H          2.1595559536       -1.0956777230        0.7389422958
 N          4.0402438785       -0.4902680788       -0.9890775108
 S          4.3194674408        0.4740655343        0.3424918098
 O          5.6205727077        1.0516212706        0.0839583193
 O          4.2018708878       -0.3013931042        1.5515198257
 C          3.0809536327        1.7550350576        0.2914017547
 C          3.1304863392        2.6569502531       -0.7544899053
 C          2.1843635612        3.6659306585       -0.8146250490
 C          1.2097305229        3.7578233058        0.1684078320
 C          1.1764955163        2.8482246307        1.2131431939
 C          2.1188588329        1.8342321294        1.2756990315
 H          2.1088071666        1.1090940309        2.0728922775
 H          0.4161794337        2.9036611890        1.9754030353
 H          0.4738155941        4.5455966407        0.1217379621
 H          2.2079093564        4.3779228140       -1.6239679160
 H          3.9131119369        2.5665845801       -1.4901529734
 H          4.6067430944       -0.2257475892       -1.7805098720
 H          3.1253285784       -1.0446264335       -3.4151033563
 H          0.9165488524       -2.0127049982       -3.9283139218
 H         -0.6743000600       -2.5159256111       -2.1119262993
 H          0.1165261787       -1.7331837457        1.4860453472
 C         -0.4524940129       -3.6462331256        0.7353141072
 C          0.6672451859       -4.3995797922        1.3857726242
 C         -0.6342457789       -4.2189863750        2.1071328183
 H         -1.2836267764       -5.0732639600        2.2260058809
 H         -0.6645909692       -3.5292859863        2.9382879642
 H          0.9145842093       -5.3802374185        1.0092276651
 H          1.5211308508       -3.8331111190        1.7274656277
 H         -0.9783838439       -4.1279475744       -0.0783921582
