  62
        -98.94802160
 C         -1.2477824397       -1.0694441751        0.0259054430
 C         -1.6137275525        0.0159230465        0.8562244473
 C         -2.6187822525        0.9360576218        0.3104018452
 C         -3.0795707461        0.7384652907       -0.9381645249
 C         -4.1311410310        1.5758182952       -1.6055334673
 C         -5.5366265760        1.0120037616       -1.3535160580
 C         -5.8234067691        0.7020586791        0.1156234800
 H         -5.1741042344       -0.1142676493        0.4398017094
 H         -6.8518117915        0.3397614271        0.1765197333
 C         -5.6450049365        1.8970982284        1.0623648592
 H         -6.4942246112        1.9308550442        1.7480469459
 H         -5.6521322820        2.8263377061        0.4915050635
 C         -4.3807826170        1.8412596644        1.9217241370
 H         -4.3228833126        0.8724851346        2.4241368048
 H         -4.4619952558        2.6084106718        2.6963457050
 C         -3.0586725700        2.0794258543        1.1809158871
 H         -2.2729742826        2.2029706398        1.9324835956
 H         -3.1197700524        3.0025366780        0.6000540197
 H         -5.6457185539        0.0884168317       -1.9266657260
 H         -6.2681426413        1.7315353528       -1.7257809069
 H         -4.0634883850        2.5967162894       -1.2338647871
 H         -3.9354320512        1.5790023927       -2.6793601320
 O         -2.6664813293       -0.2854040019       -1.7278246609
 C         -1.7412120873       -1.2130839633       -1.2705730415
 O         -1.4482865550       -2.0967348381       -2.0985091421
 H          0.8458843685        0.1026576004       -0.6183064767
 C          1.4549414288       -0.7707458745       -0.7911333014
 C          1.0395926866       -2.0032462639       -0.3074159746
 C          1.8258024443       -3.1171509229       -0.5768710986
 C          2.9855218398       -2.9906789255       -1.3218706787
 C          3.4002565011       -1.7575637896       -1.7916566005
 C          2.6232747005       -0.6365113110       -1.5231522146
 N          2.9986146750        0.6359873049       -1.9777032883
 S          2.6627690026        1.9844976885       -1.0490192159
 O          1.2611988477        2.3152804763       -1.1234494588
 O          3.5740087389        2.9918966088       -1.5501459353
 C          3.1315536505        1.5266053266        0.6102639709
 C          2.1794865805        1.3033935537        1.5829097750
 C          2.5923474061        0.9000974759        2.8435458682
 C          3.9412195634        0.7293884313        3.1101524809
 C          4.8877015912        0.9671725855        2.1243840908
 C          4.4811455063        1.3660843015        0.8623852208
 H          5.1861120236        1.5720056907        0.0734298663
 H          5.9371694104        0.8396595050        2.3352373308
 H          4.2553503642        0.4125373224        4.0921311839
 H          1.8466421748        0.7162935326        3.6007388216
 H          1.1329910943        1.4359847852        1.3568002128
 H          3.9086828341        0.6877037835       -2.4105006803
 H          4.3067226577       -1.6616797158       -2.3690796571
 H          3.5808589073       -3.8657263166       -1.5336206205
 H          1.5255911963       -4.0853413450       -0.2110673307
 C         -0.2171264243       -2.0620794961        0.5276706369
 H          0.0439210592       -1.7218181004        1.5421285746
 C         -0.8119260924       -3.4525481533        0.6192682244
 C         -0.3696265451       -4.4006431702        1.6926256336
 C         -1.7276522488       -3.7718902376        1.7619723884
 H         -2.5952455444       -4.3858017410        1.5721227519
 H         -1.8956029263       -2.9945070716        2.4932431590
 H          0.3812209319       -4.0561758027        2.3874653012
 H         -0.3063670284       -5.4522276207        1.4565041909
 H         -1.0657441047       -3.8586839776       -0.3533287003
 O         -1.1169468118        0.2085061119        1.9996280234
