  62
        -98.93862735
 C          2.7992308314        0.1283330250        0.0782114170
 C          2.1324018884        0.8716136588        1.0826619193
 C          1.8000441658        2.2631993365        0.7397370912
 C          2.1281552717        2.7489257967       -0.4695826125
 C          1.8234217930        4.1371708070       -0.9519030910
 C          0.4879192545        4.2027791941       -1.7046844232
 C         -0.6830630899        3.5489018509       -0.9702670656
 H         -1.5771044201        3.7245425457       -1.5740136173
 H         -0.5352141570        2.4663658095       -0.9404977418
 C         -0.9204508880        4.0712530403        0.4536204128
 H         -1.9939454914        4.2157105279        0.5942730396
 H         -0.4438284162        5.0446586009        0.5775212996
 C         -0.4461210467        3.1263114456        1.5597987552
 H         -0.7961000036        2.1132340136        1.3424928673
 H         -0.9022778536        3.4431795495        2.5016620710
 C          1.0713143221        3.0680383262        1.7787217072
 H          1.4762474348        4.0800119718        1.8420470100
 H          1.2540235935        2.5629811453        2.7317896991
 H          0.6065457690        3.6988104467       -2.6668741172
 H          0.2570410251        5.2528008720       -1.8970854050
 H          2.6232775331        4.4450733434       -1.6281007592
 H          1.8035078179        4.8128444205       -0.0986803782
 O          2.7720554423        2.0090149871       -1.4089131288
 C          3.0922281402        0.6848782660       -1.1699666487
 O          3.6499311931        0.1130844977       -2.1293648293
 O          1.8201579723        0.4182511468        2.2155284780
 C          3.1613368817       -1.3432425870        0.2301331565
 C          1.9779455147       -2.1692962074       -0.2056126775
 C          2.0800086539       -3.1427891759       -1.1912763672
 C          0.9525011431       -3.8051590958       -1.6487439708
 C         -0.3005759930       -3.4956279435       -1.1489968241
 C         -0.4064182264       -2.5349533175       -0.1540308032
 C          0.7241620487       -1.8962258242        0.3237783621
 H          0.6264390146       -1.1458505642        1.0945062420
 N         -1.6958793332       -2.1341584116        0.3036315476
 S         -2.2690863530       -0.9435400483       -0.7671186953
 O         -2.5141384592       -1.5849603250       -2.0346273885
 O         -1.3654409223        0.1858843835       -0.7875664799
 C         -3.8173582538       -0.4838810642       -0.0126737880
 C         -4.8498971740       -1.4021320605       -0.0267524275
 C         -6.0506193759       -1.0666977714        0.5775983901
 C         -6.1973530768        0.1732770708        1.1822525782
 C         -5.1518993309        1.0838791726        1.1869897671
 C         -3.9471727989        0.7542024546        0.5853253867
 H         -3.1086057695        1.4322300960        0.5606289547
 H         -5.2679995958        2.0477250799        1.6558097522
 H         -7.1332031644        0.4325557272        1.6515569358
 H         -6.8666209793       -1.7711095978        0.5751934633
 H         -4.6913468496       -2.3491734504       -0.5147365117
 H         -1.6162883497       -1.6913208925        1.2127538183
 H         -1.1922199151       -3.9636591735       -1.5324852203
 H          1.0485912792       -4.5528980304       -2.4213751883
 H          3.0469055775       -3.3567925991       -1.6233987762
 H          3.9745858288       -1.5197590194       -0.4913030224
 C          3.6866690578       -1.7012311330        1.6127646924
 C          2.9607170719       -2.6011636122        2.5631864456
 C          4.1969063232       -3.0879645696        1.8730480213
 H          5.1023357874       -3.2071902485        2.4482257962
 H          4.0736050170       -3.8153663297        1.0846605899
 H          3.0098083178       -2.3598465212        3.6139404553
 H          2.0116825554       -3.0115476789        2.2554814651
 H          4.2461875798       -0.8852842506        2.0575564689
