  62
        -98.93923757
 C         -2.1905167207       -0.9140413701       -0.1603702889
 C         -3.0390009406       -0.5748733991        0.9250460709
 C         -3.8890895004        0.6169917109        0.7707746501
 C         -3.8234803003        1.3273254400       -0.3702954304
 C         -4.5279610101        2.5979868999       -0.7973590713
 C         -5.7493412300        3.1069305006       -0.0359705316
 C         -6.9873426402        2.2174690308       -0.1431901409
 H         -7.7605880000        2.6306887914        0.5080635589
 H         -7.3588194302        2.2611344501       -1.1701136409
 C         -6.7753383104        0.7470405610        0.2084186102
 H         -7.7347950505        0.2351345111        0.0951752607
 H         -6.0840051105        0.2950012804       -0.5057466495
 C         -6.2705971703        0.4794760420        1.6251135504
 H         -6.9287024802        0.9654205627        2.3478598901
 H         -6.3253050305       -0.5990438379        1.7948986812
 C         -4.8226603702        0.9178193919        1.9077323800
 H         -4.4567585803        0.3444612025        2.7643018304
 H         -4.7716229600        1.9707581321        2.1750732192
 H         -5.4967776999        3.2841699714        1.0052861482
 H         -6.0022768798        4.0782657104       -0.4697677223
 H         -3.7607927000        3.3805530597       -0.7848051220
 H         -4.7974045502        2.4491584291       -1.8479180212
 O         -2.9803850105        0.9738992491       -1.3823170902
 C         -2.1536450807       -0.1357517510       -1.3152335495
 O         -1.4638688408       -0.2951094119       -2.3436334594
 O         -3.0856501406       -1.2473305283        1.9893298114
 C         -1.3239715909       -2.1518163701        0.0095263220
 C          0.0889863392       -1.7672377501        0.3790355616
 C          0.5952740292       -2.0447604093        1.6435064518
 C          1.8820933893       -1.6674872092        1.9857261114
 C          2.6874314793       -1.0035109201        1.0778121708
 C          2.1854335493       -0.7092203609       -0.1829939793
 C          0.9003319992       -1.1004646210       -0.5281073790
 H          0.5112195792       -0.8538286716       -1.5048282491
 N          2.9898741894       -0.0201744818       -1.1106392499
 S          3.6613059697        1.4364472685       -0.6069069511
 O          2.8701836199        2.0537206694        0.4334872085
 O          3.8550845097        2.2093976475       -1.8145284817
 C          5.2542542696        0.9618159487        0.0337422592
 C          5.5919833198        1.2574506696        1.3398310489
 C          6.8397621497        0.8790892897        1.8111382191
 C          7.7229351596        0.2168795389        0.9722870895
 C          7.3696293494       -0.0696654820       -0.3380630502
 C          6.1242753094        0.3060402779       -0.8153589904
 H          5.8114763493        0.1075237872       -1.8268380002
 H          8.0592560793       -0.5840122426       -0.9877751999
 H          8.6926016395       -0.0771896610        1.3417523897
 H          7.1164212299        1.1017552904        2.8291400389
 H          4.8710229499        1.7706228402        1.9563189086
 H          2.5373381193        0.0995454876       -2.0064459800
 H          3.6886621394       -0.7020876801        1.3391363605
 H          2.2619376093       -1.8911241686        2.9709133415
 H         -0.0353812408       -2.5436331286        2.3649507922
 H         -1.7577412610       -2.6868931094        0.8648223624
 C         -1.3498135412       -3.0720611010       -1.1949714873
 C         -0.9620248215       -4.5085018010       -1.0186103463
 C         -2.3928510514       -4.1442991709       -1.2754052564
 H         -2.8214951715       -4.3731998915       -2.2395762262
 H         -3.0942963014       -4.2212388502       -0.4574123663
 H         -0.4047118916       -4.9912546517       -1.8064409659
 H         -0.6931910314       -4.8341476703       -0.0252710960
 H         -1.0705627812       -2.5832873118       -2.1191717277
