  62
        -98.93848747
 C         -2.5393711119       -1.1920407006        0.2228372509
 C         -2.6850847059       -0.3544177230       -0.9071211086
 C         -3.5503158686        0.8278699759       -0.7395763134
 C         -4.1359021137        1.0582698728        0.4504728669
 C         -5.0888703295        2.1480495496        0.8959919947
 C         -5.2580622339        3.4228574793        0.0730443096
 C         -4.0215264689        4.3191772417        0.0156920972
 H         -4.2299062729        5.1431152357       -0.6701618339
 H         -3.8550800664        4.7464444346        1.0079240149
 C         -2.7266200777        3.6329119711       -0.4130789287
 H         -2.4488528588        2.8790152655        0.3270084776
 H         -1.9341463628        4.3863938967       -0.4149955405
 C         -2.7549901312        2.9845756243       -1.7961027061
 H         -1.7331717622        2.6779580045       -2.0358475933
 H         -3.0676045973        3.7200424367       -2.5396611568
 C         -3.6515236265        1.7407205323       -1.9271647761
 H         -4.6866880956        2.0147693544       -2.1151121202
 H         -3.3017268600        1.1629190708       -2.7874979330
 H         -6.0578319241        3.9956035170        0.5505060209
 H         -5.5993379775        3.1819088865       -0.9292874069
 H         -4.7784828845        2.4160919072        1.9110332331
 H         -6.0683105151        1.6662879914        0.9914732204
 O         -3.9609520201        0.2186059977        1.5146927316
 C         -3.1591029365       -0.9065122877        1.4363242869
 O         -3.0732867143       -1.5535003240        2.5010804535
 O         -2.1227880231       -0.5796230301       -2.0095178778
 C         -1.6564946504       -2.4226877214        0.1429704673
 C         -0.2465974042       -2.0388078935       -0.2399284003
 C          0.5262474559       -2.7774366541       -1.1263249523
 C          1.8222291722       -2.3889005068       -1.4197041316
 C          2.3749416799       -1.2616436730       -0.8411047880
 C          1.6154600190       -0.5215068210        0.0557123278
 C          0.3219149721       -0.9190845792        0.3548790258
 H         -0.2651096193       -0.3430519561        1.0612884650
 N          2.1663322369        0.6331224897        0.6434456967
 S          3.6237668497        0.4633721451        1.4633960796
 O          3.7717879596       -0.8680238910        2.0050662276
 O          3.6515922804        1.5518521561        2.4163276244
 C          4.8569138105        0.7545055813        0.2129255923
 C          5.8314796344       -0.1943724978       -0.0264370247
 C          6.7881189285        0.0585056593       -0.9974017338
 C          6.7530076505        1.2488814167       -1.7073714365
 C          5.7684404019        2.1923296646       -1.4532514472
 C          4.8102398093        1.9467196254       -0.4828358429
 H          4.0308349306        2.6538638086       -0.2525168530
 H          5.7440822473        3.1166765776       -2.0076152099
 H          7.4975767566        1.4430573718       -2.4631551153
 H          7.5544775435       -0.6732789977       -1.1962224996
 H          5.8144711754       -1.1077817523        0.5463349773
 H          1.5076077158        1.1475734277        1.2103632899
 H          3.3799946947       -0.9502867939       -1.0745756494
 H          2.4086685616       -2.9708172926       -2.1141325614
 H          0.1125609295       -3.6576601005       -1.5902538228
 H         -1.6262192669       -2.8421987449        1.1602008130
 C         -2.2752914247       -3.4462672196       -0.7871653356
 C         -2.0741980488       -4.9112362954       -0.5454693259
 C         -3.4094277659       -4.2845873128       -0.2816941821
 H         -4.2270585574       -4.5054604410       -0.9511712205
 H         -3.7139701890       -4.1366901715        0.7446449323
 H         -1.9783409827       -5.5664293298       -1.3981648151
 H         -1.4752952346       -5.2011686380        0.3048115778
 H         -2.3288615776       -3.0958978581       -1.8114145685
