  62
        -98.94471553
 C         -1.8237677054       -0.0755264321        0.1639605080
 C         -2.8515637109       -0.8171828781        0.7940879806
 C         -4.1865151862       -0.2052276495        0.7803547236
 C         -4.3503275208        1.0012377611        0.2072155738
 C         -5.6650235465        1.7119052284        0.0695524304
 C         -6.3508910300        1.3561620458       -1.2570813768
 C         -6.4162301135       -0.1455291400       -1.5360163054
 H         -6.9464497463       -0.2775088737       -2.4817095567
 H         -5.4022531350       -0.5253968641       -1.6809820674
 C         -7.1125678011       -0.9651002468       -0.4405872983
 H         -7.7140485776       -0.3075207178        0.1880758345
 H         -7.7950940235       -1.6738440302       -0.9143387784
 C         -6.1643975608       -1.7806297183        0.4403211412
 H         -5.4971207335       -2.3729919342       -0.1907647977
 H         -6.7643719695       -2.4796096516        1.0290663260
 C         -5.3072091046       -0.9731903659        1.4231552091
 H         -5.9456931244       -0.3075231382        2.0073371136
 H         -4.8307929185       -1.6814712617        2.1072862855
 H         -7.3607468828        1.7703442098       -1.2455775723
 H         -5.7978707116        1.8315783920       -2.0705913237
 H         -6.3074632620        1.4437050402        0.9059976673
 H         -5.4793126225        2.7869635933        0.0952579336
 O         -3.3328915015        1.6970816008       -0.3619561906
 C         -2.0472201700        1.1764557172       -0.4086944222
 O         -1.2158528381        1.9133001187       -0.9719506759
 H          1.9439147041        0.4234984134       -0.8516179735
 C          1.7082504413        0.7180415771        0.1570771468
 C          0.5546689700        0.2656424195        0.7769274311
 C          0.2852836751        0.6880244305        2.0774778989
 C          1.1346162623        1.5593729749        2.7288700585
 C          2.2800053628        2.0197933871        2.1024967795
 C          2.5629925561        1.5986110144        0.8095022791
 N          3.7129830330        2.0555009682        0.1533510522
 S          4.5360253269        1.0887113945       -0.9234066718
 O          5.8721633883        1.6458479282       -0.9535237107
 O          3.8545158138        1.0349146522       -2.1921698441
 C          4.5768512137       -0.5377131672       -0.1878463853
 C          4.9001971012       -0.6648035201        1.1487608878
 C          4.9392240287       -1.9302391651        1.7111587414
 C          4.6621687005       -3.0431384053        0.9319184966
 C          4.3495896661       -2.9003011965       -0.4106317449
 C          4.3056480415       -1.6361447246       -0.9767943126
 H          4.0605358975       -1.4781690059       -2.0145014450
 H          4.1364807929       -3.7656338944       -1.0177410197
 H          4.6906928847       -4.0269889728        1.3730942517
 H          5.1840855818       -2.0445508360        2.7548084225
 H          5.1171833645        0.2144712304        1.7326238817
 H          4.3298956154        2.6313698939        0.7057625091
 H          2.9415971112        2.7091018353        2.6046137332
 H          0.9067944833        1.8834816721        3.7330967512
 H         -0.6112137114        0.3299172457        2.5649448440
 C         -0.4250421441       -0.6645973169        0.1084589219
 H         -0.4764603942       -1.5910195122        0.6997104910
 C         -0.0669256086       -1.0189966772       -1.3187059952
 C          0.8870751473       -2.1383346628       -1.6034817876
 C         -0.5740601190       -2.3090154129       -1.8883773472
 H         -0.9033838623       -2.3253810044       -2.9166105409
 H         -1.1531824959       -2.9441512058       -1.2340051399
 H          1.5612287763       -2.0331823246       -2.4398095796
 H          1.3065601954       -2.6641572885       -0.7593787147
 H         -0.0524360127       -0.1550087834       -1.9745800672
 O         -2.6599599646       -1.9348507104        1.3441090148
