  62
        -98.93397705
 C         -2.4973605042       -1.4164118233        0.2157355319
 C         -2.7760852907       -0.4674830679       -0.7959307433
 C         -3.9083216483        0.4483336738       -0.5471818592
 C         -4.5879226371        0.3731898194        0.6113542634
 C         -5.7916860266        1.1412077086        1.1158377472
 C         -6.2345263103        2.4362358248        0.4396707966
 C         -5.2549893953        3.6004862535        0.5816416501
 H         -5.2395960415        3.9169586108        1.6275215906
 H         -5.6301286612        4.4360928660       -0.0132854298
 C         -3.8151474939        3.3046521946        0.1690971301
 H         -3.3917638211        2.5458271613        0.8305758058
 H         -3.2315914480        4.2180652605        0.3132770069
 C         -3.6298314150        2.8591536295       -1.2803263189
 H         -2.5559272868        2.8488893443       -1.4871175855
 H         -4.0899132466        3.5876621616       -1.9507866036
 C         -4.1798480871        1.4627699582       -1.6211042041
 H         -3.6637807056        1.1075305296       -2.5180143477
 H         -5.2421033964        1.5010565858       -1.8503188813
 H         -7.1704725681        2.7327363659        0.9209053325
 H         -6.4626756621        2.2571352261       -0.6069242042
 H         -5.5933210390        1.3397595788        2.1737783690
 H         -6.6276296033        0.4335090546        1.0872819692
 O         -4.2678671692       -0.5457233332        1.5688166555
 C         -3.2386649303       -1.4508494846        1.3996282806
 O         -3.0828711958       -2.2309577493        2.3596930071
 O         -2.1285481605       -0.3688180258       -1.8716351230
 C         -1.4008565325       -2.4636841650        0.1059581662
 C         -0.0601542422       -1.9179946015        0.5244939719
 C          0.7362797109       -2.5988531885        1.4373288459
 C          1.9815082872       -2.1075976262        1.7894760008
 C          2.4573439984       -0.9315547453        1.2378457024
 C          1.6679394751       -0.2424971713        0.3265716222
 C          0.4191417268       -0.7348236662       -0.0209850528
 H         -0.1840526641       -0.2033908581       -0.7427417155
 N          2.1519045064        0.9529257903       -0.2462526513
 S          3.5424980539        0.7910866291       -1.1837259021
 O          3.5233753911        1.9091951686       -2.1010486557
 O          3.6236381655       -0.5255818166       -1.7739843300
 C          4.8701384520        1.0180361759       -0.0194684802
 C          4.9536481225        2.2251002795        0.6467833306
 C          5.9840168103        2.4188097026        1.5529163415
 C          6.9095481016        1.4094655348        1.7737205187
 C          6.8138862512        0.2048016390        1.0939666891
 C          5.7848168949        0.0040310411        0.1870002163
 H          5.6667446362       -0.9169281295       -0.3611832668
 H          7.5345556211       -0.5783020891        1.2665172064
 H          7.7104526260        1.5629651388        2.4796193499
 H          6.0622593793        3.3543941275        2.0828973090
 H          4.2174276368        2.9841696199        0.4411237978
 H          1.4456198921        1.4376020549       -0.7833395584
 H          3.4265635318       -0.5445991068        1.5071485947
 H          2.5887970504       -2.6465955610        2.5003539841
 H          0.3688876057       -3.5150252566        1.8763387798
 H         -1.6809844632       -3.2434218865        0.8315447326
 C         -1.3587615740       -3.1223411549       -1.2685656375
 C         -0.2361088245       -2.9558701420       -2.2445049610
 C         -0.4142779870       -4.2585432706       -1.5276358371
 H         -0.7704631360       -5.1135807116       -2.0818789786
 H          0.2974971046       -4.4979874956       -0.7519495030
 H         -0.4917967341       -2.8974268238       -3.2918690607
 H          0.6033019265       -2.3330763342       -1.9743363812
 H         -2.3511406568       -3.2117765763       -1.6994784462
