  62
        -98.93784872
 C          1.7536046127       -0.5917555587       -0.5467240769
 C          3.0375945519       -0.5947282924       -1.1351948997
 C          4.1886685096       -0.4008088795       -0.2315691888
 C          3.9568096717       -0.2445348432        1.0853512323
 C          4.9561203810        0.0103243605        2.1820459174
 C          5.4600673863        1.4627615760        2.1951035122
 C          5.8028937048        2.0370665556        0.8228473484
 H          4.9229374002        1.9790843341        0.1794243530
 H          6.0366515728        3.0968439857        0.9553587433
 C          6.9895010511        1.3819252074        0.1199932701
 H          7.8772992257        1.4820276252        0.7485412860
 H          7.1706351260        1.9423225191       -0.8009252821
 C          6.8190606642       -0.0935493324       -0.2477116375
 H          6.9477804559       -0.7313538434        0.6226555430
 H          7.6249340474       -0.3502889662       -0.9416486585
 C          5.5114550196       -0.4283716612       -0.9587353348
 H          5.3939100109        0.2354303344       -1.8230814098
 H          5.5945229855       -1.4372336019       -1.3813368259
 H          6.3350970908        1.5192912854        2.8447212562
 H          4.6762426716        2.0879144043        2.6300662842
 H          5.7844957234       -0.6873062042        2.1031867823
 H          4.4434297058       -0.1870477954        3.1260530945
 O          2.6984814377       -0.2566743753        1.6102642533
 C          1.5721343642       -0.4249572616        0.8258319043
 O          0.4984475892       -0.4086896399        1.4541228376
 O          3.2230430673       -0.7433297059       -2.3744645604
 C          0.5388044003       -0.7840146955       -1.4327385365
 C         -0.4174733120        0.3785944675       -1.3228679340
 C          0.0678527240        1.6687165712       -1.1309654063
 C         -0.7932466301        2.7427120096       -1.0064071395
 C         -2.1625842919        2.5591329636       -1.0869999200
 C         -2.6574089711        1.2824744388       -1.3069194955
 C         -1.7904454857        0.2030403998       -1.4246080249
 H         -2.1961417197       -0.7835607015       -1.5886230050
 N         -4.0578632357        1.1002656233       -1.3888600240
 S         -4.8812546893        1.1771765364        0.0708592822
 O         -6.2789997740        1.0032784794       -0.2526829481
 O         -4.5221591854        2.4001396684        0.7396698803
 C         -4.2907312073       -0.2424841961        0.9740371236
 C         -3.0280706753       -0.1979110931        1.5299254901
 C         -2.5206659953       -1.3375114747        2.1343155369
 C         -3.2845124243       -2.4936553937        2.1767221843
 C         -4.5557841920       -2.5202179555        1.6215711476
 C         -5.0621716650       -1.3883565557        1.0042172629
 H         -6.0405690302       -1.3659243587        0.5516957779
 H         -5.1469178815       -3.4212123310        1.6603756643
 H         -2.8835917544       -3.3796125002        2.6442157615
 H         -1.5199713572       -1.3084673869        2.5355419452
 H         -2.4479791717        0.7095920806        1.4849809921
 H         -4.3201333778        0.2449473114       -1.8606840092
 H         -2.8507786980        3.3797653015       -0.9686483409
 H         -0.3948139738        3.7329643978       -0.8437121769
 H          1.1365790033        1.8214757732       -1.0667338009
 H          0.9302587374       -0.8099539777       -2.4613968001
 C         -0.1208301184       -2.1152206057       -1.1278939846
 C         -0.7669216411       -2.9177737376       -2.2169381757
 C          0.5289102176       -3.3731040087       -1.6182193830
 H          0.5272337052       -4.2401796957       -0.9752249899
 H          1.4294163282       -3.2670503941       -2.2055965114
 H         -1.6606331083       -3.4773643220       -1.9837655403
 H         -0.7440583789       -2.5159735953       -3.2189548801
 H         -0.5716308326       -2.1356204369       -0.1416274409
