  62
        -98.94227616
 C         -2.8698912598       -0.3343319221       -0.2345731104
 C         -2.1717367997       -0.6467854923        0.9590172795
 C         -1.6392921088       -2.0129974420        1.0353586989
 C         -1.9555625682       -2.9088242617        0.0824230884
 C         -1.4758313073       -4.3329089214        0.0137529077
 C         -0.1136538772       -4.4817522202       -0.6789872523
 C          1.0835804724       -3.9696384099        0.1234114881
 H          1.0755880726       -4.4248563604        1.1138868178
 H          1.9836856427       -4.3140877891       -0.3887872221
 C          1.1515322515       -2.4409850399        0.2621534088
 H          0.4952411912       -1.9785104100       -0.4802423110
 H          2.1675883113       -2.0989137892        0.0490403290
 C          0.7768137411       -1.9167773808        1.6498681091
 H          1.4946728213       -2.2874723008        2.3850239989
 H          0.8445324604       -0.8237725208        1.6415766296
 C         -0.6366460187       -2.3076928319        2.1091725988
 H         -0.6652312081       -3.3609202421        2.3869270183
 H         -0.8928469891       -1.7043904725        2.9832154191
 H         -0.1553943575       -3.9663030298       -1.6414891520
 H          0.0380261134       -5.5448709700       -0.8776783428
 H         -1.4271392171       -4.7555918419        1.0169699175
 H         -2.2186346470       -4.8867801916       -0.5640009026
 O         -2.7722845184       -2.6077357217       -0.9629778215
 C         -3.1768232292       -1.2995759219       -1.1913059508
 O         -3.7960002292       -1.1307516617       -2.2615634208
 H         -0.6974659702        0.4468676596       -1.1057196598
 C         -0.7636647509        1.4612646494       -0.7305883494
 C         -2.0065010712        1.9811878285       -0.3928990892
 C         -2.0648741120        3.2883837182        0.0737841815
 C         -0.9080742325        4.0349495488        0.2204792619
 C          0.3296236978        3.4975792797       -0.0811586683
 C          0.3993446687        2.1942777700       -0.5551950989
 N          1.6519834390        1.6201348409       -0.8585230591
 S          2.8417992489        1.8014436511        0.3328981610
 O          2.2993882990        1.5243499601        1.6424761208
 O          3.4417459281        3.1025826215        0.1637323717
 C          4.0081836597        0.5413560720       -0.1411607395
 C          4.6655554696        0.6724065930       -1.3501880694
 C          5.5642156503       -0.3107883662       -1.7320045899
 C          5.7902683209       -1.4008286865       -0.9038411804
 C          5.1264430009       -1.5155862775        0.3078367195
 C          4.2245766803       -0.5360751482        0.6957327999
 H          3.6862320503       -0.5798761890        1.6290259599
 H          5.3044563714       -2.3620396477        0.9513385091
 H          6.4907048614       -2.1642458159       -1.2034473507
 H          6.0854304403       -0.2242385154       -2.6716554698
 H          4.4654516291        1.5392329132       -1.9579133790
 H          1.5580482896        0.6413492110       -1.0979897196
 H          1.2399650975        4.0567856302        0.0633638120
 H         -0.9694776932        5.0470598786        0.5914210024
 H         -3.0168891723        3.7192220375        0.3385387716
 C         -3.2346820107        1.1078165878       -0.5277887797
 H         -3.5728579706        1.1365267281       -1.5744807997
 C         -4.3753145710        1.5586400666        0.3630632405
 C         -5.3963272516        2.5336083463       -0.1396805291
 C         -5.7633228507        1.0927794859        0.0445164002
 H         -6.4175705906        0.8242461851        0.8602443100
 H         -5.8859034503        0.4771240563       -0.8348958101
 H         -5.2854156217        2.9005044768       -1.1489843389
 H         -5.8033037920        3.2559521557        0.5519800313
 H         -4.0886098011        1.6063872063        1.4076430705
 O         -1.9731048302        0.1754542574        1.8898397599
