  62
        -98.94286037
 C         -1.1382079630       -1.7024698094        0.1945508630
 C         -1.5968117435       -0.8422991294        1.2172160902
 C         -2.8160805056       -0.0670632186        0.9316738173
 C         -3.4020254337       -0.1975011344       -0.2709806238
 C         -4.6004304121        0.5456961659       -0.7931173788
 C         -4.1621403731        1.8054664213       -1.5598993669
 C         -4.0076455667        3.0597831527       -0.7019434971
 H         -3.5923462977        3.8409609299       -1.3429970953
 H         -4.9938598553        3.3931379115       -0.3701816913
 C         -3.1015475198        2.9055833562        0.5220898416
 H         -2.1971703735        2.3612165041        0.2403955962
 H         -2.7825510712        3.9051229060        0.8262265033
 C         -3.8006861010        2.2248916312        1.7084892200
 H         -3.6581345941        2.8318297693        2.6053513481
 H         -4.8741035854        2.1998314502        1.5200583358
 C         -3.3030579954        0.8137767570        2.0499039206
 H         -4.0925377863        0.2810788281        2.5915976614
 H         -2.4515966878        0.8876226742        2.7341336137
 H         -3.2115435401        1.5873893047       -2.0546609750
 H         -4.8971598298        2.0165326413       -2.3397275507
 H         -5.2845397206        0.7941463533        0.0129537063
 H         -5.1050370206       -0.1281677711       -1.4887643799
 O         -2.9195559398       -1.0279496978       -1.2364498178
 C         -1.7750237235       -1.7823083188       -1.0432451079
 O         -1.4393278699       -2.4705154540       -2.0261707562
 O         -1.0025311473       -0.7160492442        2.3234272443
 C          0.1424665592       -2.4851605213        0.4105088192
 C          1.2192851654       -2.0136880557       -0.5382904241
 C          2.2016113340       -2.8503536703       -1.0545452872
 C          3.1770424143       -2.3450886922       -1.8971047489
 C          3.2103092347       -1.0021171727       -2.2277435539
 C          2.2336156306       -0.1567412459       -1.7141007572
 C          1.2546318631       -0.6696277190       -0.8795221645
 H          0.4864129916       -0.0084518142       -0.5122438355
 N          2.2114025555        1.2103851634       -2.0234564553
 S          1.6564744660        2.3137643441       -0.8970423452
 O          0.2227713668        2.2364848729       -0.7752665827
 O          2.1821925663        3.5813815529       -1.3584123742
 C          2.4633737686        1.8490378122        0.6244364225
 C          1.7532909539        1.2905060436        1.6663460596
 C          2.4366726874        0.8911981390        2.8046870448
 C          3.8097446424        1.0586690956        2.8835275045
 C          4.5090488592        1.6327653650        1.8320067430
 C          3.8323653453        2.0286841572        0.6908464285
 H          4.3385213963        2.4873523604       -0.1430698233
 H          5.5766102415        1.7676731940        1.8975585135
 H          4.3361830502        0.7417818501        3.7699737864
 H          1.8820029659        0.4429640829        3.6137525751
 H          0.6853614674        1.1611731702        1.5860051601
 H          3.0085822667        1.5521884256       -2.5384274512
 H          3.9729239919       -0.6123422744       -2.8841764293
 H          3.9283726028       -3.0075288847       -2.2992125251
 H          2.1978160740       -3.8986771140       -0.8045745076
 H          0.4676656674       -2.2351668049        1.4325901162
 C         -0.1117886509       -3.9764089362        0.3330473867
 C          0.6786636409       -4.9266795233        1.1809528453
 C         -0.7607544629       -4.6592961794        1.4986778318
 H         -1.4885465095       -5.4324904817        1.3037706923
 H         -0.9911016767       -4.0518007992        2.3618435466
 H          0.9392579765       -5.8898284211        0.7685876843
 H          1.4257947508       -4.5090428398        1.8387656465
 H         -0.4051617560       -4.2953880253       -0.6606113677
