  62
        -98.94028418
 C          2.5430427803        1.0784096903       -0.2232196405
 C          2.3954883205       -0.3209895297       -0.0683024305
 C          3.5596541907       -1.0244144696        0.4857005992
 C          4.6531679107       -0.3297426895        0.8487050889
 C          5.9059617409       -0.9013172894        1.4553669686
 C          6.9031768607       -1.4525124393        0.4270385883
 C          6.4910926906       -2.7658766094       -0.2389133816
 H          7.3677816005       -3.1458860893       -0.7671409318
 H          6.2321601209       -3.4954773194        0.5290147885
 C          5.3326398503       -2.6332071895       -1.2372701713
 H          5.5753467601       -3.1797543094       -2.1513297813
 H          5.2093120502       -1.5838780395       -1.5147650112
 C          3.9940698805       -3.1707213896       -0.7306593009
 H          4.0676047506       -4.2490207096       -0.5728526209
 H          3.2395889103       -2.9939839996       -1.5014099807
 C          3.5028202208       -2.5199341896        0.5693342792
 H          2.4586549009       -2.8036680797        0.7243856395
 H          4.0903604610       -2.8775817395        1.4147567491
 H          7.8500747708       -1.6149349293        0.9470097181
 H          7.0706978904       -0.6919812993       -0.3390049517
 H          5.6437356211       -1.6849829194        2.1667404287
 H          6.3874368110       -0.0853899594        1.9987183585
 O          4.7384417606        1.0213527905        0.7206580289
 C          3.6992251804        1.7530289504        0.1700320992
 O          3.9188272302        2.9788939904        0.0918989491
 O          1.3520562604       -0.9544219998       -0.3771998202
 C          1.4086546301        1.9068428702       -0.8018683802
 C          0.2092055003        1.7989218502        0.1087880701
 C          0.3445101007        2.2153359102        1.4311155001
 C         -0.7116302091        2.1122393601        2.3146060603
 C         -1.9276891492        1.5944214500        1.9016160207
 C         -2.0727072395        1.1736911100        0.5875840707
 C         -1.0082539097        1.2834182401       -0.3015123896
 H         -1.1341265700        0.9468983301       -1.3186050696
 N         -3.3088644596        0.6717627199        0.1349835910
 S         -4.1679335092       -0.4066287902        1.1093675613
 O         -4.6979261590        0.3149061298        2.2392721514
 O         -3.3640774891       -1.5680756601        1.4213608310
 C         -5.4945792795       -0.8410818503        0.0018852016
 C         -6.5242324796        0.0639750096       -0.1739259081
 C         -7.5503046498       -0.2512679704       -1.0499889579
 C         -7.5299290699       -1.4592483704       -1.7316374879
 C         -6.4905489998       -2.3576811104       -1.5437316681
 C         -5.4596159296       -2.0475909603       -0.6702532484
 H         -4.6343457595       -2.7177196002       -0.4888331686
 H         -6.4786384999       -3.2968981404       -2.0730562081
 H         -8.3304323301       -1.7034837405       -2.4120040976
 H         -8.3611331699        0.4435835195       -1.1979831376
 H         -6.5019736095        0.9853797096        0.3838068519
 H         -3.2298428198        0.2895626499       -0.7985102990
 H         -2.7543516790        1.4994164999        2.5861704409
 H         -0.5907624789        2.4357782201        3.3379024803
 H          1.2963945007        2.6139379802        1.7565281598
 H          1.7545645700        2.9500399603       -0.7824014103
 C          1.1378394297        1.5085391402       -2.2368961402
 C          0.4682196294        2.4726895002       -3.1681508900
 C          1.9250078294        2.1616040503       -3.3313718604
 H          2.2343445492        1.5597802203       -4.1727844604
 H          2.6464312494        2.9127483003       -3.0441257406
 H         -0.2222219507        2.0872477901       -3.9030740498
 H          0.1981779795        3.4403372601       -2.7733492299
 H          0.9184015398        0.4526737302       -2.3449121101
