  62
        -98.93750070
 C         -2.2860468218       -0.5543458283        0.2091309494
 C         -1.8771197572        0.3609850484        1.2108697580
 C         -1.9101630760        1.7971223275        0.8859119729
 C         -2.3084834186        2.1656787205       -0.3451373758
 C         -2.4045698057        3.5547148318       -0.9185121701
 C         -1.0341730796        4.1255160279       -1.3164051379
 C          0.0793697646        3.8925943925       -0.2985655825
 H          0.1966445224        2.8173052984       -0.1480461693
 H          1.0124244504        4.2481992811       -0.7456070068
 C         -0.0990956816        4.6011884307        1.0423815844
 H          0.8029567119        4.4107925862        1.6294238734
 H         -0.1613355390        5.6779444493        0.8679625521
 C         -1.3087859271        4.1751565598        1.8769696373
 H         -2.2253620865        4.6124423172        1.4904167571
 H         -1.1687370585        4.5837878417        2.8819988942
 C         -1.4708286191        2.6674782260        2.0385623123
 H         -2.1906299532        2.4769621832        2.8439575117
 H         -0.5235845604        2.2431782311        2.3905859589
 H         -1.1458557545        5.1949757001       -1.5061092700
 H         -0.7252361102        3.6436154472       -2.2477836523
 H         -3.0234068676        3.4816084945       -1.8159418971
 H         -2.9111324404        4.2133243067       -0.2187314991
 O         -2.6664493510        1.2533252157       -1.2896008876
 C         -2.6123657161       -0.1115439978       -1.0713965711
 O         -2.8865003463       -0.7863517540       -2.0866901278
 O         -1.4894341581       -0.0150995479        2.3509053225
 C         -2.1635430055       -2.0260325523        0.5756273760
 C         -0.7150329194       -2.4207987793        0.4073683425
 C          0.0020864327       -3.0466587475        1.4190203299
 C          1.3623858094       -3.2691937207        1.2876360805
 C          2.0393663532       -2.8294560347        0.1635338136
 C          1.3253833374       -2.2161781365       -0.8564322292
 C         -0.0448270466       -2.0545392652       -0.7510900027
 H         -0.5855218407       -1.5693116165       -1.5517584384
 N          2.0427138735       -1.6270864974       -1.9419726776
 S          2.1898143414        0.0356675774       -1.6441143791
 O          0.8999596141        0.6587179112       -1.4409776314
 O          2.9736531589        0.5673659066       -2.7384698042
 C          3.1272696880        0.0572635182       -0.1348222853
 C          2.4572084649        0.1559928735        1.0687259216
 C          3.1882354326        0.1123499575        2.2452519727
 C          4.5667866111       -0.0301694458        2.1970424208
 C          5.2245697764       -0.1243761614        0.9796004762
 C          4.4995411254       -0.0838874639       -0.2005268225
 H          4.9636577420       -0.1530282006       -1.1704597131
 H          6.2965773779       -0.2336176611        0.9470307335
 H          5.1302600582       -0.0677298116        3.1159623370
 H          2.6725600029        0.1817236828        3.1896973106
 H          1.3818717013        0.2582415439        1.0675361119
 H          1.5620877737       -1.7355296155       -2.8264797290
 H          3.1073225648       -2.9401947074        0.0705169548
 H          1.9064197766       -3.7535549991        2.0833129744
 H         -0.5074294296       -3.3283158435        2.3282233971
 H         -2.4004565226       -2.0894731580        1.6469761141
 C         -3.0828454755       -2.9630556337       -0.1767595857
 C         -3.4219668314       -4.2898113213        0.4323253331
 C         -4.4640270460       -3.2164664087        0.3451777132
 H         -5.2674617191       -3.3266620943       -0.3671269479
 H         -4.7546592407       -2.7116016470        1.2548276605
 H         -3.5094277359       -5.1453986392       -0.2192011994
 H         -3.0101463237       -4.5162238604        1.4038399456
 H         -2.9608820630       -2.9173138900       -1.2508488411
