  62
        -98.94374724
 C          1.9120715397        1.2749638198       -0.3024708298
 C          1.8330725900       -0.0038808804        0.2997475497
 C          3.0819167000       -0.5079093003        0.8847414196
 C          4.1937186798        0.2484623700        0.8457889101
 C          5.5371299699       -0.1244477199        1.4116499501
 C          6.3855671402       -0.9996436993        0.4785676998
 C          5.9174856006       -2.4489151094        0.3383365093
 H          6.7198787208       -2.9967557590       -0.1599053209
 H          5.7923959006       -2.8865165698        1.3293223191
 C          4.6249492307       -2.6224542194       -0.4713706910
 H          4.4354487206       -1.7167639793       -1.0520504906
 H          4.7500713310       -3.4398919091       -1.1850438612
 C          3.3878657707       -2.9390894501        0.3690930888
 H          3.5095084209       -3.9127320902        0.8489188184
 H          2.5265441808       -2.9978615600       -0.3007969013
 C          3.0786610203       -1.8959183405        1.4506725191
 H          2.0779014503       -2.0916723909        1.8441171489
 H          3.7953888402       -1.9769904307        2.2675604392
 H          6.4175289602       -0.5298741990       -0.5072932100
 H          7.4033093501       -1.0063147392        0.8757353200
 H          6.0723223596        0.8115599002        1.5860473405
 H          5.4048992799       -0.6314527703        2.3680040499
 O          4.2187082696        1.4873132802        0.2845191205
 C          3.0893365395        2.0215094701       -0.3168306394
 O          3.2563100193        3.1550136903       -0.8122570290
 H         -1.9650222102        1.2828232892       -1.4296826603
 C         -1.7699702004        1.5798767789       -0.4106442401
 C         -0.4805991205        1.9076929991       -0.0183169799
 C         -0.2712402608        2.3005687787        1.3007645103
 C         -1.3140684609        2.3333711580        2.2067022402
 C         -2.5965932507        1.9901433079        1.8151962199
 C         -2.8210928205        1.6166522483        0.4982254998
 N         -4.1327601503        1.2771881981        0.0985640695
 S         -4.7713436001       -0.1524099623        0.6964230489
 O         -6.1293633800       -0.2109797325        0.2048066487
 O         -4.6045801802       -0.1742296228        2.1263711589
 C         -3.8041454596       -1.4392672518       -0.0724175615
 C         -4.3612474893       -2.1779648215       -1.0985454518
 C         -3.5831701490       -3.1281121411       -1.7394632921
 C         -2.2618510690       -3.3098532609       -1.3579218320
 C         -1.7163999793       -2.5571792311       -0.3296722017
 C         -2.4936609496       -1.6144937616        0.3243804986
 H         -2.0825066999       -1.0172580217        1.1218754689
 H         -0.6833191893       -2.6643618910       -0.0408794016
 H         -1.6517499588       -4.0406585305       -1.8657350022
 H         -4.0045722988       -3.7174036109       -2.5381360423
 H         -5.3893826093       -1.9960535717       -1.3675641619
 H         -4.2622638002        1.2969548284       -0.9039732305
 H         -3.4180974708        1.9898965374        2.5124878998
 H         -1.1282847211        2.6301470077        3.2281756203
 H          0.7291670891        2.5696620688        1.6124756205
 C          0.6866816996        1.8655397297       -0.9743928698
 H          0.9509761094        2.9001109999       -1.2388430693
 C          0.3881747800        1.0966268601       -2.2467175801
 C         -0.2161068801        1.7870241004       -3.4317394999
 C          1.2212751400        1.3643798108       -3.4626023599
 H          1.5030116603        0.5323147511       -4.0902058902
 H          1.9827049998        2.1267594510       -3.3811721195
 H         -0.9198953999        1.2427110005       -4.0437698202
 H         -0.4299304204        2.8416264103       -3.3432381495
 H          0.1034609302        0.0685482300       -2.0513983605
 O          0.7805056301       -0.6882687707        0.3485352493
