  62
        -98.93911424
 C         -2.4738538503       -1.0468979879        0.3589837893
 C         -2.6020890488        0.1578077457        1.1005063062
 C         -3.8593689334        0.8950049633        0.9398832220
 C         -4.8237857344        0.3977868524        0.1447406601
 C         -6.1817456304        1.0016909565       -0.0904699262
 C         -6.2049351993        2.0924883683       -1.1696020835
 C         -5.5579582724        3.4179386638       -0.7664898746
 H         -5.8346480050        4.1536957440       -1.5240906268
 H         -5.9784072042        3.7529938201        0.1821231460
 C         -4.0269865530        3.3684940687       -0.6637172966
 H         -3.6538615633        2.4819609524       -1.1820394949
 H         -3.5988339717        4.2370130038       -1.1692769476
 C         -3.4856772682        3.3667591570        0.7661859272
 H         -3.7372198938        4.3107591651        1.2549712242
 H         -2.3956221341        3.2918477571        0.7200351078
 C         -4.0026851010        2.2140495379        1.6369840595
 H         -5.0430328768        2.3877793683        1.9119369960
 H         -3.4001628641        2.1755600800        2.5479701564
 H         -7.2516854433        2.2837390842       -1.4165301218
 H         -5.7160983878        1.7066587350       -2.0670027587
 H         -6.8317188655        0.1851787526       -0.4120516217
 H         -6.5680337138        1.4061422402        0.8455313403
 O         -4.6719745255       -0.7650561130       -0.5377831339
 C         -3.4975302904       -1.5030630212       -0.4726732858
 O         -3.5197302084       -2.5211256548       -1.1917997801
 O         -1.7075266294        0.5895936409        1.8782191014
 C         -1.1767585951       -1.8158288657        0.5367329482
 C         -0.1856026049       -1.5530810421       -0.5727511018
 C         -0.4985829460       -1.8003116976       -1.9050715423
 C          0.4388617005       -1.5703671707       -2.8953773327
 C          1.7008502633       -1.1004387119       -2.5788314919
 C          2.0294084646       -0.8638148358       -1.2483565583
 C          1.0828944928       -1.0861709963       -0.2579127375
 H          1.3399192247       -0.8774803220        0.7695834991
 N          3.3277541074       -0.4491345773       -0.9075602575
 S          3.6040593010        0.5102975917        0.4504809475
 O          3.4354399795       -0.2954758884        1.6333298514
 O          2.8231835584        1.7253838699        0.3769504073
 C          5.3351793790        0.8666033748        0.2157400609
 C          6.2473663480       -0.1431412646        0.4597418573
 C          7.5948624585        0.1079870375        0.2578139472
 C          8.0063061027        1.3580711695       -0.1809359781
 C          7.0799758870        2.3621549313       -0.4181659996
 C          5.7298550504        2.1167770818       -0.2202235619
 H          4.9743629330        2.8680165217       -0.3859251802
 H          7.4031443103        3.3337664554       -0.7555328829
 H          9.0559189824        1.5515094340       -0.3363441256
 H          8.3182013713       -0.6695075462        0.4435879989
 H          5.8818381951       -1.0948102288        0.8084514933
 H          3.8480806030       -0.1070411079       -1.7041977163
 H          2.4299627291       -0.9236449147       -3.3549357327
 H          0.1826061068       -1.7582374379       -3.9272656200
 H         -1.4815880513       -2.1687854213       -2.1546005929
 H         -0.7379535197       -1.4216910466        1.4644840043
 C         -1.3757790424       -3.3110185166        0.7025684748
 C         -0.3044080277       -4.1116740281        1.3771182057
 C         -1.6117527307       -3.8732570433        2.0703826497
 H         -2.3005267627       -4.6978532415        2.1757875079
 H         -1.6304657052       -3.1796284598        2.8987603872
 H         -0.0925223364       -5.1026772091        1.0064124603
 H          0.5648532102       -3.5801281679        1.7357385495
 H         -1.9049688050       -3.7673802258       -0.1236681456
