  62
        -98.94796646
 C          1.2481942668        0.7890307545        0.4081446366
 C          2.0768054689        0.5893787650       -0.7217636101
 C          3.0207780306       -0.5311413144       -0.6266798496
 C          3.0074593351       -1.3295954283        0.4559012276
 C          3.8884988703       -2.5280783099        0.6835153144
 C          5.2728490980       -2.1875857871        1.2527044824
 C          6.2372825649       -1.5269731356        0.2667507361
 H          7.2270946691       -1.5447681358        0.7271607031
 H          6.2902957170       -2.1260444424       -0.6428267040
 C          5.8841766835       -0.0761625145       -0.0894363597
 H          5.1833261025        0.3196815408        0.6490279895
 H          6.7845653505        0.5401424514       -0.0399103012
 C          5.2863109144        0.1063788983       -1.4845081449
 H          6.0274693616       -0.1643560625       -2.2396792560
 H          5.0404167047        1.1629877299       -1.6166070163
 C          4.0119475434       -0.7102985119       -1.7367046369
 H          4.2576223525       -1.7648334816       -1.8622085921
 H          3.5462504789       -0.3481598067       -2.6567581185
 H          5.7215554240       -3.1225437746        1.5962231483
 H          5.1424096337       -1.5417089776        2.1240750129
 H          3.3656718002       -3.1650457532        1.4006737228
 H          4.0014551496       -3.0812196366       -0.2495474867
 O          2.1474414747       -1.1438938159        1.4926934208
 C          1.2548495577       -0.0845750724        1.4948794506
 O          0.5241873326       -0.0298747794        2.5064707895
 O          2.0325695874        1.3045481513       -1.7566096804
 C          0.2467343426        1.9283738745        0.4239506012
 C         -0.7880463020        1.7341561477       -0.6591856292
 C         -1.3256104668        2.7778281139       -1.4021861465
 C         -2.2983101348        2.5275413751       -2.3549791450
 C         -2.7749737226        1.2466529596       -2.5686822553
 C         -2.2469895760        0.1969512375       -1.8258367903
 C         -1.2579774063        0.4489411097       -0.8896345471
 H         -0.8349740721       -0.3790257560       -0.3420769567
 N         -2.6994923556       -1.1206317388       -1.9955471156
 S         -2.8210329545       -2.1186499059       -0.6580300032
 O         -1.5170062797       -2.5785167417       -0.2494910863
 O         -3.7497018047       -3.1500499825       -1.0709300480
 C         -3.5767594731       -1.1012260189        0.5981113332
 C         -2.8506139834       -0.6359051361        1.6747701620
 C         -3.4753212868        0.1968853084        2.5910985366
 C         -4.8046448499        0.5474485482        2.4187378512
 C         -5.5238125095        0.0637052084        1.3358152901
 C         -4.9052234776       -0.7649882779        0.4153388248
 H         -5.4321680670       -1.1713105338       -0.4327004969
 H         -6.5597328004        0.3322715248        1.2062951478
 H         -5.2821530198        1.1980911205        3.1342502199
 H         -2.9069149342        0.5664611888        3.4299315402
 H         -1.8147590397       -0.9144080758        1.7939061697
 H         -3.4880770193       -1.2250900932       -2.6168459821
 H         -3.5387431133        1.0564241769       -3.3067541084
 H         -2.6996657740        3.3452731255       -2.9338647194
 H         -0.9779078145        3.7849676794       -1.2408902049
 H         -0.2744170791        1.8591250381        1.3911688613
 C          0.9570018600        3.2641794118        0.3477494670
 C          0.3810165673        4.4677308692        1.0295986350
 C          1.6061285072        3.8072104200        1.5843053004
 H          2.5560466168        4.3115414942        1.4896609428
 H          1.5103553919        3.2253537132        2.4899460447
 H          0.4923742947        5.4312958519        0.5556174536
 H         -0.5466582614        4.3427455263        1.5672855911
 H          1.4765893701        3.4046934389       -0.5927743542
