  62
        -98.94310326
 C         -2.5607190038       -0.1763265450        0.5339213892
 C         -2.2027689699        0.3632493549       -0.7271486465
 C         -1.9852512648        1.8179836277       -0.7655431904
 C         -2.0872984467        2.5338856943        0.3675766689
 C         -1.8619773500        4.0139381671        0.4780577665
 C         -0.4050566652        4.3399308290        0.8312187635
 C          0.6231392215        3.6396752006       -0.0577125811
 H          1.6102245768        3.9965100401        0.2466901161
 H          0.6040493537        2.5642524444        0.1378386858
 C          0.4337393063        3.8784570775       -1.5622438888
 H         -0.1902258863        4.7588009827       -1.7246905964
 H          1.4097878038        4.0839949220       -2.0064423591
 C         -0.1558961837        2.6844078765       -2.3157645787
 H         -0.0061603243        2.8469141117       -3.3868497318
 H          0.3872863328        1.7785541493       -2.0359231763
 C         -1.6529747800        2.4315092905       -2.0963833569
 H         -2.2113790357        3.3593260045       -2.2428884472
 H         -1.9810109740        1.7084736634       -2.8490610587
 H         -0.2225017639        4.0378374394        1.8654214607
 H         -0.2699867444        5.4214413526        0.7628256026
 H         -2.1322397587        4.4861037525       -0.4646486171
 H         -2.5109325069        4.3992154251        1.2669042921
 O         -2.3882564127        1.9757194570        1.5695516608
 C         -2.6094310814        0.6136540932        1.6837707837
 O         -2.8443490486        0.2314501903        2.8495953034
 H         -0.2038587450       -1.2333170269        1.1393003261
 C         -0.3456470932       -2.0291086355        0.4205090245
 C         -1.6351667270       -2.4156039290        0.0763671982
 C         -1.7971809857       -3.4434706646       -0.8421654032
 C         -0.6902318858       -4.0451999843       -1.4164662663
 C          0.5897453896       -3.6270813866       -1.1039726632
 C          0.7615063140       -2.6047547036       -0.1769066754
 N          2.0456064451       -2.1497021731        0.1791489490
 S          2.2101182649       -0.4874068935        0.4476011475
 O          1.8379372501       -0.1987968611        1.8118882135
 O          1.5217592282        0.2566888636       -0.5796999721
 C          3.9747610701       -0.3030334049        0.2680701989
 C          4.7910846485       -0.7936337243        1.2700439148
 C          6.1649417853       -0.6802113616        1.1300636137
 C          6.6967590567       -0.0804667650       -0.0022735193
 C          5.8649314089        0.4097915317       -0.9973644975
 C          4.4893983875        0.2973439239       -0.8647655968
 H          3.8023712310        0.6670754290       -1.6090628893
 H          6.2804356648        0.8785087487       -1.8747598921
 H          7.7664348532        0.0074943968       -0.1082304298
 H          6.8145725983       -1.0579657520        1.9029650224
 H          4.3312546844       -1.2416405819        2.1354797872
 H          2.7619456815       -2.4878251323       -0.4499622425
 H          1.4490702070       -4.0801136216       -1.5748959900
 H         -0.8284930820       -4.8384503829       -2.1356089322
 H         -2.7876047911       -3.7544756517       -1.1312703768
 C         -2.7710798752       -1.6692655881        0.7326220706
 H         -2.6805963517       -1.8206530092        1.8220920066
 C         -4.1495188796       -2.1783498074        0.3395332488
 C         -5.3352608044       -1.2613540665        0.3227922907
 C         -4.7999940309       -1.8172928627       -0.9607413210
 H         -5.3795073273       -2.5740058684       -1.4693074352
 H         -4.2574094956       -1.1611411591       -1.6219449939
 H         -6.2768940484       -1.6350769114        0.6962409895
 H         -5.1612831156       -0.2173848363        0.5413400108
 H         -4.3289039993       -3.1825691152        0.7116203037
 O         -2.0878134151       -0.3200173182       -1.7772895454
