  62
        -98.94219828
 C         -1.8789447508       -1.3364026701       -0.0395516700
 C         -3.0383272506       -1.1976507999        0.7683961602
 C         -4.1965983005       -0.5504134094        0.1443951404
 C         -4.1251263406       -0.1545883693       -1.1389797895
 C         -5.2285261805        0.4918663412       -1.9315280693
 C         -5.3340991000        2.0097112612       -1.7301342091
 C         -5.8927827896        2.4482008012       -0.3758498790
 H         -6.1155660393        3.5144068813       -0.4513974288
 H         -6.8345885198        1.9316191115       -0.1881957389
 C         -4.9375894995        2.2268441707        0.8055281308
 H         -3.9221814396        2.0757559605        0.4311286607
 H         -4.9159603992        3.1234117407        1.4292846009
 C         -5.3102408198        1.0536016508        1.7123051908
 H         -6.2664828496        1.2569457110        2.1993919009
 H         -4.5472130597        0.9676567604        2.4902932806
 C         -5.4066193403       -0.2975640291        0.9915683106
 H         -5.4549990205       -1.0861367892        1.7464258505
 H         -6.3113694504       -0.3369431088        0.3852009407
 H         -5.9903555200        2.3976672115       -2.5126710390
 H         -4.3457500398        2.4518791009       -1.8766120792
 H         -6.1812455406        0.0236818314       -1.6825618792
 H         -5.0100700707        0.2986538012       -2.9840767794
 O         -3.0058333607       -0.3216885396       -1.8886866297
 C         -1.8477232108       -0.8822321200       -1.3586125700
 O         -0.8991609110       -0.9067024602       -2.1653086701
 O         -3.1019847306       -1.6078881200        1.9578151101
 C         -0.6770289809       -1.9983775906        0.6114560397
 C          0.2690182095       -0.9797705110        1.1935191597
 C          0.7462075096       -1.1060104313        2.4926060396
 C          1.6303039300       -0.1760984916        3.0128982696
 C          2.0566574903        0.8958188783        2.2496006497
 C          1.5854875901        1.0304741686        0.9496252098
 C          0.7002721597        0.0969336990        0.4304432298
 H          0.3429667396        0.2040261292       -0.5833780801
 N          2.0161654003        2.1142594286        0.1568656698
 S          3.6683088004        2.2589239381       -0.0885351204
 O          4.2889391507        2.6908809278        1.1382552396
 O          3.8141365205        3.1402918982       -1.2239489803
 C          4.2077065998        0.6113564880       -0.5016263207
 C          4.0871556594        0.1919118282       -1.8116101907
 C          4.4352957690       -1.1097397919       -2.1335589109
 C          4.8815017588       -1.9694635422       -1.1414316410
 C          4.9941864292       -1.5336368624        0.1696367590
 C          4.6555359996       -0.2303950023        0.4968759092
 H          4.7366889699        0.1487264376        1.5020002492
 H          5.3402006991       -2.2052980226        0.9383915689
 H          5.1405509985       -2.9856002822       -1.3923295012
 H          4.3478167187       -1.4500075518       -3.1528126809
 H          3.7349430696        0.8907370284       -2.5536626006
 H          1.5394170502        2.1595274889       -0.7329159701
 H          2.7467322005        1.6284539281        2.6359024097
 H          1.9890810301       -0.2846731618        4.0249768996
 H          0.4092836195       -1.9329206512        3.1002378796
 H         -1.1001630610       -2.5709919506        1.4518749197
 C          0.0269649086       -2.9929944907       -0.3024924405
 C          1.3610932086       -2.7443904611       -0.9325104106
 C          1.2367747885       -3.7367966512        0.1816476893
 H          1.3215141881       -4.7882841912       -0.0459092709
 H          1.6387560887       -3.4557455514        1.1431218692
 H          1.5105827084       -3.1022339310       -1.9393202107
 H          1.8584774290       -1.8090685613       -0.7301011706
 H         -0.6843471516       -3.5563578304       -0.8985301504
