  62
        -98.94394815
 C         -1.9731053398       -1.2310649288       -0.1915141090
 C         -2.3331239399       -0.0362940596       -0.8607481603
 C         -3.7668282999        0.2938177504       -0.8521038505
 C         -4.6333478098       -0.5331519689       -0.2399649796
 C         -6.1074602298       -0.2856498388       -0.1062466797
 C         -6.4272213697        0.4720218126        1.1901815495
 C         -5.5564393897        1.7082923528        1.4150726681
 H         -5.8906627397        2.1768658738        2.3432481976
 H         -4.5214699497        1.3937356430        1.5685696883
 C         -5.6076838999        2.7368177716        0.2766746170
 H         -6.4882228599        2.5613300309       -0.3424492628
 H         -5.7093184098        3.7341923521        0.7096234559
 C         -4.3622735099        2.7622585007       -0.6114835032
 H         -3.4674549399        2.8456534314        0.0110333867
 H         -4.4086311400        3.6574139600       -1.2376332541
 C         -4.1860214100        1.5589840597       -1.5462002119
 H         -5.1015566600        1.4003358990       -2.1198028416
 H         -3.3790118100        1.7980011189       -2.2453429422
 H         -7.4785199397        0.7646110925        1.1684329293
 H         -6.2804437397       -0.2072478465        2.0329933202
 H         -6.4544907399        0.2826878602       -0.9669357903
 H         -6.6182188898       -1.2498328888       -0.0886836886
 O         -4.2507265098       -1.6788352983        0.3793908317
 C         -2.9174517398       -2.0481649482        0.4321829919
 O         -2.7025484397       -3.1093767975        1.0518758131
 H          1.3430161401        0.2198011504       -0.9516332309
 C          1.1500414002        0.2421386815        0.1069292991
 C          0.2485250802       -0.6382411578        0.6822061402
 C         -0.0010893897       -0.5439070564        2.0500733701
 C          0.6327295504        0.4115789445        2.8193288590
 C          1.5342131403        1.2892804939        2.2415262280
 C          1.7875446002        1.2072908924        0.8776633180
 N          2.6726302402        2.1102776118        0.2697564070
 S          3.7945701001        1.6251875905       -0.8668591926
 O          4.6688350300        2.7677520004       -1.0151593939
 O          3.1424028700        1.1585984092       -2.0625304320
 C          4.6824129202        0.2911957514       -0.0834839612
 C          4.2319524402       -1.0053924488       -0.2289221898
 C          4.9035528402       -2.0236031380        0.4296051813
 C          6.0060585903       -1.7304821172        1.2171910809
 C          6.4466904203       -0.4224769170        1.3520765194
 C          5.7775294502        0.6002512523        0.7000605084
 H          6.0921287002        1.6290578424        0.7679197372
 H          7.3069100303       -0.1978307363        1.9618829591
 H          6.5257681204       -2.5269852666        1.7259413817
 H          4.5623540903       -3.0409963882        0.3231012824
 H          3.3747837301       -1.1985079195       -0.8521692795
 H          3.0751227102        2.7889677024        0.8991845562
 H          2.0259734404        2.0421329345        2.8387446471
 H          0.4272316205        0.4741678456        3.8772941789
 H         -0.7120625896       -1.2265804359        2.4957739509
 C         -0.5182257198       -1.6670802887       -0.1120457187
 H         -0.5194982997       -2.6059633581        0.4591618124
 C          0.0436544301       -1.9416233402       -1.4901100284
 C          1.2147716901       -2.8635797703       -1.6423192075
 C         -0.1476112099       -3.3019373809       -2.0877169369
 H         -0.3471288900       -3.3763410920       -3.1462116668
 H         -0.6696612499       -4.0371266102       -1.4923848661
 H          1.9518268000       -2.6395812912       -2.3994077978
 H          1.6173636802       -3.3093180594       -0.7450304171
 H         -0.0275239300       -1.0932846909       -2.1603632493
 O         -1.5101695900        0.7199233898       -1.4396209512
