  62
        -98.93719044
 C         -1.2290897076        1.3412620473       -0.2531749721
 C         -2.1699721744        0.8792415297       -1.2031507429
 C         -2.8973235364       -0.3651166830       -0.8842195258
 C         -2.5886719369       -1.0180209684        0.2514871521
 C         -3.2129760607       -2.2720845402        0.8031192822
 C         -4.5940031696       -2.0194541887        1.4295815402
 C         -5.5145358168       -1.1148616907        0.6146113533
 H         -6.4103475203       -0.9273147307        1.2124653989
 H         -5.0247511078       -0.1521915779        0.4567929738
 C         -5.9626302512       -1.6822244957       -0.7302450937
 H         -6.6787896436       -0.9758794586       -1.1581776862
 H         -6.4874977315       -2.6257928543       -0.5645093291
 C         -4.8555169610       -1.9166463277       -1.7602468725
 H         -5.3407074659       -2.0809041342       -2.7269747472
 H         -4.2986270697       -2.8230645886       -1.5384712121
 C         -3.8997336225       -0.7424802529       -1.9484176409
 H         -3.3127150123       -0.9141335861       -2.8591836013
 H         -4.4821015850        0.1638353206       -2.1513392670
 H         -5.0801185664       -2.9824994323        1.5943878327
 H         -4.4421323888       -1.5469261192        2.4029941642
 H         -3.2730716007       -3.0317579545        0.0294475656
 H         -2.5426461730       -2.6399617523        1.5822179927
 O         -1.6348079115       -0.5653855021        1.1115083632
 C         -0.9276306017        0.6044256066        0.8941243591
 O         -0.0858223470        0.8582068914        1.7723855511
 O         -2.3994956201        1.4801725482       -2.2886869894
 C         -0.4598404723        2.6111982451       -0.5728365800
 C          1.0127090438        2.3575506778       -0.3730393620
 C          1.8092969265        3.0580517652        0.5214822040
 C          3.1427446842        2.7219730812        0.6837416157
 C          3.7094856605        1.6883641459       -0.0386082278
 C          2.9212194552        0.9851123473       -0.9406141572
 C          1.5895507366        1.3267543901       -1.1060009814
 H          0.9747101959        0.7702315945       -1.8037113777
 N          3.4837519115       -0.0806192659       -1.6771947720
 S          4.0686538728       -1.3718357375       -0.7825829907
 O          5.2609012947       -0.9571791251       -0.0883804105
 O          4.2270613017       -2.4497477593       -1.7335347249
 C          2.7817854175       -1.7672178939        0.3853378227
 C          1.7559517770       -2.5959030130       -0.0230704102
 C          0.7341153750       -2.8844988887        0.8660372029
 C          0.7516030206       -2.3340698328        2.1379419502
 C          1.7820905779       -1.4945221154        2.5282864466
 C          2.8091625643       -1.2055131614        1.6452024487
 H          3.6286505753       -0.5591183896        1.9132508424
 H          1.7811289947       -1.0543089761        3.5118167322
 H         -0.0485674323       -2.5500346295        2.8281365819
 H         -0.0747228475       -3.5303502650        0.5622134230
 H          1.7829563149       -3.0112006819       -1.0183598920
 H          2.8633181807       -0.4322485880       -2.3932711660
 H          4.7404311852        1.4014391827        0.0919644424
 H          3.7481186424        3.2690881508        1.3904686822
 H          1.3806997416        3.8492963133        1.1139751074
 H         -0.6346107401        2.7723148245       -1.6501227188
 C         -0.9667289034        3.8569513420        0.1364038952
 C         -2.4026981104        3.9753571825        0.5491806750
 C         -1.3310272980        3.8650045353        1.5896578450
 H         -1.0926790740        4.7438064427        2.1710470958
 H         -1.2321254243        2.9401583727        2.1350450492
 H         -2.8994466491        4.9247662576        0.4160371968
 H         -3.0424396105        3.1210457234        0.3812826060
 H         -0.5052676526        4.7589466496       -0.2541701490
