  62
        -98.93722721
 C         -2.4222621752       -1.0751654857       -0.0496550396
 C         -3.5177719462       -0.7484538521        0.7844040728
 C         -4.5442846498        0.1525012978        0.2263791345
 C         -4.3816597898        0.6181310581       -1.0261335140
 C         -5.2638802075        1.5695091619       -1.7902009264
 C         -5.1072760516        3.0269404101       -1.3276871154
 C         -5.0732073858        3.2207090332        0.1859128583
 H         -4.2508001715        2.6368424914        0.6033105185
 H         -4.8539746791        4.2738815300        0.3805305916
 C         -6.3676788558        2.8706221679        0.9160718610
 H         -7.1810050587        3.4802899567        0.5160860347
 H         -6.2320898073        3.1455902178        1.9652487532
 C         -6.7900199202        1.4007032789        0.8628486887
 H         -7.2427173619        1.1556665371       -0.0941837847
 H         -7.5679024743        1.2581235637        1.6187347365
 C         -5.6790831358        0.4075567517        1.1891763873
 H         -5.2118806980        0.6909380818        2.1392584310
 H         -6.1322406944       -0.5739956902        1.3740614740
 H         -4.1677922102        3.4103865175       -1.7331481234
 H         -5.9230937387        3.6130280560       -1.7542656524
 H         -4.9616060820        1.5031550814       -2.8377231364
 H         -6.3001794209        1.2516254867       -1.7244954229
 O         -3.3020790291        0.2859736536       -1.7897056824
 C         -2.3032429048       -0.5568021145       -1.3382756960
 O         -1.3963787748       -0.7607941490       -2.1684842987
 O         -3.6404882822       -1.1909252517        1.9584585148
 C         -1.3519240296       -2.0011369609        0.5032915272
 C         -0.0838833878       -1.2116637566        0.7150887789
 C          0.0564845175       -0.4496810774        1.8718826234
 C          1.1925250380        0.3079368185        2.0854677798
 C          2.2096651151        0.3293006208        1.1468085899
 C          2.0769688660       -0.4218645265       -0.0127339416
 C          0.9406161362       -1.1938174422       -0.2184197994
 H          0.8456316273       -1.7628309089       -1.1299469230
 N          3.0947898242       -0.3838659313       -0.9812588551
 S          4.6701519454       -0.6909664014       -0.4956669239
 O          5.3484312409       -1.1712533838       -1.6798493246
 O          4.7073333450       -1.5562520541        0.6608351297
 C          5.3113555930        0.9159100914       -0.0742804448
 C          5.8488345661        1.1368203580        1.1786294737
 C          6.3522005034        2.3928870010        1.4800234370
 C          6.3105735910        3.3997150080        0.5277831923
 C          5.7693297900        3.1609659904       -0.7268819797
 C          5.2652715121        1.9074440446       -1.0346764104
 H          4.8394336187        1.6803014904       -1.9979344686
 H          5.7383683581        3.9465018628       -1.4647595566
 H          6.7022235122        4.3764523641        0.7644243619
 H          6.7733731370        2.5805750633        2.4546465518
 H          5.8554862394        0.3250368753        1.8884980285
 H          2.8681838618       -0.8889797083       -1.8255207616
 H          3.0971590431        0.9205065689        1.3035518278
 H          1.2879807073        0.8898871937        2.9895653411
 H         -0.7430127998       -0.4571206000        2.5997008592
 H         -1.7231020869       -2.3141937731        1.4886822158
 C         -1.1653996250       -3.2325725141       -0.3584412835
 C         -0.3979490901       -4.3981503957        0.1879542011
 C         -1.8818037035       -4.4972621417        0.0037975972
 H         -2.2625415188       -5.1191662276       -0.7924867004
 H         -2.5079251212       -4.4827518815        0.8837561453
 H          0.2432527349       -4.9539907651       -0.4793495186
 H         -0.0142465532       -4.3132775261        1.1935728019
 H         -1.0642152499       -3.0091373078       -1.4136511021
