  62
        -98.93838448
 C         -2.2148115767       -0.9503993030        0.7816101001
 C         -2.0492433545       -0.1718984312       -0.3916189605
 C         -2.5523069773        1.2072957463       -0.3174443136
 C         -3.0813125890        1.6724562704        0.8276769151
 C         -3.6150296724        3.0596616066        1.0614078412
 C         -5.0598893108        3.2636588327        0.5850990419
 C         -5.2439262173        3.3285231763       -0.9316573745
 H         -6.2563797701        3.6931387425       -1.1155218476
 H         -4.5527391866        4.0613623112       -1.3491164939
 C         -5.0663731268        1.9837161157       -1.6503166703
 H         -5.8785525349        1.8428800511       -2.3667677673
 H         -5.1353609379        1.1705805573       -0.9241314910
 C         -3.7536109773        1.8465189089       -2.4218552369
 H         -3.7295845140        2.5712514645       -3.2385928927
 H         -3.7138698574        0.8457291048       -2.8594723103
 C         -2.4963844947        2.0379801080       -1.5635076465
 H         -1.6269521648        1.7103536328       -2.1402476432
 H         -2.3670962368        3.0909363233       -1.3125003590
 H         -5.4119071749        4.2052940981        1.0124152609
 H         -5.6785668322        2.4612568853        0.9933600939
 H         -2.9629183718        3.7872128468        0.5767013981
 H         -3.5807196962        3.2273252738        2.1401681311
 O         -3.1684383776        0.9114054558        1.9516277192
 C         -2.7387439547       -0.4064923267        1.9565311586
 O         -2.8606548244       -0.9774499250        3.0592483173
 O         -1.5112013082       -0.5903949583       -1.4488394176
 C         -1.7243347631       -2.3872622523        0.8590198227
 C         -0.3411001283       -2.4715992458        0.2598240014
 C          0.0188084190       -3.3455902161       -0.7565259877
 C          1.3012753474       -3.3246418488       -1.2781852535
 C          2.2480742801       -2.4359675378       -0.8039009980
 C          1.8983939411       -1.5606524190        0.2146541066
 C          0.6214801984       -1.5959428038        0.7477749791
 H          0.3507687076       -0.9023387492        1.5367697709
 N          2.8554563114       -0.6304764837        0.6899643509
 S          3.1966464444        0.6652285728       -0.3452658404
 O          2.4399969832        1.8235103381        0.0873494937
 O          3.0302730588        0.2487364799       -1.7130252122
 C          4.9265590972        0.9231090636       -0.0012606651
 C          5.8405234923        0.0576046703       -0.5699893575
 C          7.1863454467        0.2201425948       -0.2845437083
 C          7.5937993763        1.2396326322        0.5631937876
 C          6.6647714049        2.1007307769        1.1265759986
 C          5.3166334882        1.9418095259        0.8452135443
 H          4.5602959247        2.5914860587        1.2552629000
 H          6.9840020760        2.8938311959        1.7835010342
 H          8.6419770057        1.3650751332        0.7843309174
 H          7.9115014569       -0.4468427273       -0.7222082496
 H          5.4788825778       -0.7139389732       -1.2293290557
 H          2.5718590934       -0.2305648014        1.5753670212
 H          3.2387541766       -2.3932993829       -1.2250496470
 H          1.5618923361       -4.0035833762       -2.0759926500
 H         -0.7130268794       -4.0229562055       -1.1650904560
 H         -1.6369346769       -2.5990576783        1.9379830437
 C         -2.6958626616       -3.4123691421        0.2937833738
 C         -4.1672116963       -3.1318191903        0.2356191376
 C         -3.3719265851       -3.2252951615       -1.0299306560
 H         -3.5140324813       -4.0912961194       -1.6598450914
 H         -3.1565325886       -2.3198496706       -1.5744910682
 H         -4.8508828523       -3.9317918742        0.4770811724
 H         -4.5041604549       -2.1575419855        0.5594865305
 H         -2.4135864433       -4.4265646835        0.5586840880
