  62
        -98.93240928
 C          2.2040754504        1.0205489199        0.7199094804
 C          2.0564428305        0.2400776900       -0.4518971096
 C          2.5753878403       -1.1411397101       -0.3896764696
 C          3.1075915100       -1.5938356003        0.7579170405
 C          3.7318790497       -2.9365894904        1.0204201705
 C          5.2502443098       -2.8907647406        0.7776241008
 C          5.6818733300       -3.1720424706       -0.6608688391
 H          6.7570711401       -2.9886089208       -0.7191975689
 H          5.5161089299       -4.2277286406       -0.8851503292
 C          4.9813171004       -2.3295645504       -1.7296698692
 H          4.9163046205       -1.2921381204       -1.3967406791
 H          5.6021310506       -2.3425500105       -2.6274234191
 C          3.5808249804       -2.8498570202       -2.0869671295
 H          3.4485606601       -3.8453228802       -1.6636987096
 H          3.5003405606       -2.9616635601       -3.1702628895
 C          2.4195787004       -1.9450291900       -1.6518713297
 H          2.2247435807       -1.2021055399       -2.4323529197
 H          1.5054169903       -2.5442377399       -1.5671375599
 H          5.7295543195       -3.6280804607        1.4245888709
 H          5.6088443199       -1.9047390707        1.0839988710
 H          3.2580642197       -3.7057422103        0.4177522404
 H          3.5543670695       -3.1585458404        2.0749010505
 O          3.1887651999       -0.8227658403        1.8781796005
 C          2.7314120401        0.4815188297        1.8949950405
 O          2.8358233900        1.0472909897        3.0020463106
 O          1.5244902708        0.6632223201       -1.5111565097
 C          1.6849557207        2.4472366800        0.8006873604
 C          0.3003870708        2.5059626302        0.2021321201
 C         -0.0707698589        3.3586148204       -0.8280910099
 C         -1.3537946188        3.3145198806       -1.3468669502
 C         -2.2905014590        2.4247391007       -0.8546910404
 C         -1.9294420694        1.5705947106        0.1777552096
 C         -0.6511514595        1.6272449204        0.7059658999
 H         -0.3707843297        0.9496825003        1.5054845199
 N         -2.8767483296        0.6410391607        0.6739079994
 S         -3.2085960796       -0.6776641991       -0.3347007808
 O         -2.4237645499       -1.8148767193        0.1043517493
 O         -3.0692116093       -0.2806809291       -1.7111149607
 C         -4.9281555598       -0.9623898589        0.0391403889
 C         -5.8714985895       -0.1538296087       -0.5642671913
 C         -7.2095579496       -0.3391330385       -0.2567796716
 C         -7.5801812399       -1.3235119485        0.6473205083
 C         -6.6218883602       -2.1270496887        1.2456034384
 C         -5.2815299401       -1.9454345289        0.9420656887
 H         -4.5037786903       -2.5522615990        1.3768843189
 H         -6.9124187305       -2.8930706487        1.9464257183
 H         -8.6223185900       -1.4667193983        0.8853528881
 H         -7.9574084194        0.2828914817       -0.7215448917
 H         -5.5379648292        0.5913810913       -1.2672076812
 H         -2.5863850399        0.2614900106        1.5661105194
 H         -3.2819051889        2.3649966009       -1.2719880606
 H         -1.6232934985        3.9767353707       -2.1556879902
 H          0.6534437213        4.0364367103       -1.2493022497
 H          1.5924857205        2.6520988999        1.8806776904
 C          2.6356650809        3.4953487498        0.2429596007
 C          4.1148404009        3.2545103396        0.2113663210
 C          3.3392030512        3.3218259298       -1.0680965992
 H          3.4684565415        4.1896319798       -1.6983121191
 H          3.1582561411        2.4093291899       -1.6133532593
 H          4.7727581510        4.0733366795        0.4609899911
 H          4.4717235607        2.2908591195        0.5455462510
 H          2.3211481511        4.5024590899        0.4984983507
