  62
        -98.93319141
 C         -2.2529769797       -0.4297007506        0.0660754310
 C         -3.4651055898       -0.9993895503        0.5228572312
 C         -4.6403089997       -0.1159338701        0.5144592008
 C         -4.4974217696        1.1583666597        0.1065658902
 C         -5.6104073395        2.1575016697       -0.0350710603
 C         -6.4055571395        1.8769871792       -1.3263300402
 C         -7.8519761795        1.4394023394       -1.0941004500
 H         -8.4470038394        2.3130008096       -0.8198306104
 H         -8.2362610495        1.0643710690       -2.0450443298
 C         -8.0627586696        0.3724438800       -0.0154816595
 H         -8.0370024896        0.8375766104        0.9710128403
 H         -9.0737648697       -0.0182754500       -0.1490515793
 C         -7.0757472698       -0.8019881101       -0.0301862589
 H         -6.6478889598       -0.9330494407       -1.0243320589
 H         -7.6299636199       -1.7142200700        0.1998212915
 C         -5.9385445298       -0.6966581698        1.0033527410
 H         -5.6825076599       -1.7038770596        1.3450477515
 H         -6.2865742197       -0.1332035493        1.8734275208
 H         -5.8770016695        1.1071458889       -1.8925746798
 H         -6.4151406094        2.7725767089       -1.9493588806
 H         -6.2618514295        2.1089716702        0.8345221697
 H         -5.1546535794        3.1468607196       -0.0766201508
 O         -3.3109064595        1.6744439693       -0.3078677901
 C         -2.1603412296        0.9002248392       -0.3426185897
 O         -1.1492686295        1.5043178689       -0.7471200000
 O         -3.5583250599       -2.1909607501        0.9245112818
 C         -1.0033898598       -1.2915432807        0.0379662414
 C          0.0572370202       -0.6813773004        0.9199215511
 C         -0.2358376198       -0.4730129598        2.2661456010
 C          0.6979332903        0.0897985905        3.1133403107
 C          1.9474273103        0.4500185802        2.6390603706
 C          2.2475702603        0.2524009895        1.2969133107
 C          1.3067940403       -0.3156987308        0.4480635909
 H          1.5683762603       -0.4573327013       -0.5867978790
 N          3.4928963204        0.6433410591        0.7811329705
 S          4.1827793703       -0.2470118615       -0.4735147191
 O          3.6121352204        0.1742019079       -1.7280065293
 O          4.1070493301       -1.6606861514       -0.1793894984
 C          5.8713245604        0.3172962983       -0.3647119193
 C          6.1921996405        1.5464992081       -0.9096224699
 C          7.4945282305        2.0075316780       -0.8020373501
 C          8.4491345704        1.2365720082       -0.1550113997
 C          8.1129634103        0.0041345585        0.3844315309
 C          6.8116706603       -0.4623485214        0.2817207511
 H          6.5056693002       -1.4166507712        0.6791889815
 H          8.8580847602       -0.5939820514        0.8836991512
 H          9.4620738505        1.5979272281       -0.0733133399
 H          7.7599752106        2.9639678177       -1.2227893105
 H          5.4188784406        2.1055597579       -1.4105442102
 H          4.1674140304        0.8653741394        1.5002749304
 H          2.6787657004        0.8904824404        3.2996173204
 H          0.4554724703        0.2445913811        4.1540592207
 H         -1.2119245298       -0.7578342395        2.6354908811
 H         -1.3017335299       -2.2542348205        0.4793768918
 C         -0.5477943698       -1.5318219815       -1.3851225585
 C          0.3052475600       -2.7214989917       -1.7053736479
 C         -1.1229691199       -2.6796566518       -2.1569894580
 H         -1.3282941399       -2.5425999823       -3.2080600680
 H         -1.8379859300       -3.3103691315       -1.6491752477
 H          1.0886113001       -2.6092522721       -2.4402573980
 H          0.5653010900       -3.3816240413       -0.8914719576
 H         -0.3576931797       -0.6111317517       -1.9266243289
