  62
        -98.93932981
 C         -2.5700172772       -0.2279364710        0.2254239043
 C         -2.6279227744        0.9485458629        1.0135441427
 C         -2.3485078629        2.2132078716        0.3233281063
 C         -2.0274379093        2.1903083007       -0.9825842124
 C         -1.6942723475        3.4001937911       -1.8062141210
 C         -0.1850389088        3.6751418039       -1.8218144810
 C          0.4607834209        3.6868702891       -0.4362003492
 H          0.4471338698        2.6702789769       -0.0352665311
 H          1.5106628454        3.9553619731       -0.5769739579
 C         -0.1835584224        4.6564497088        0.5644615642
 H          0.6110749489        5.1802341244        1.1000704181
 H         -0.7635375352        5.4088438735        0.0285365784
 C         -1.0676947808        3.9930089192        1.6222663959
 H         -0.5278962861        3.1574019021        2.0754786591
 H         -1.2624068462        4.7252313949        2.4106148372
 C         -2.4267160796        3.4772669896        1.1324691215
 H         -2.9394307054        4.2624578007        0.5730522825
 H         -3.0278389920        3.2327683503        2.0132170800
 H          0.3034977623        2.8946843809       -2.4107110440
 H         -0.0163169824        4.6346863434       -2.3153832653
 H         -2.0300869174        3.2192175782       -2.8290866008
 H         -2.2269238229        4.2611856089       -1.4059866001
 O         -1.9481069953        1.0429962651       -1.7011078829
 C         -2.1695918855       -0.1942644388       -1.1129166689
 O         -1.9985553620       -1.1547635504       -1.8868183718
 O         -2.8983928719        0.9394087880        2.2460075087
 C         -2.7730463467       -1.5593339360        0.9338354024
 C         -1.5616117014       -2.4125553099        0.6589014840
 C         -1.5858837716       -3.6445385522        0.0208694736
 C         -0.4035586795       -4.2931225941       -0.2962010586
 C          0.8223775222       -3.7241739420       -0.0000472632
 C          0.8521382162       -2.5060096963        0.6611636321
 C         -0.3282428677       -1.8737370300        1.0040258466
 H         -0.2935966976       -0.9079509177        1.4952423241
 N          2.1062381277       -1.8618558485        0.9000313228
 S          2.3626714357       -0.7277240431       -0.3391559594
 O          1.4660779095        0.3978586224       -0.1807781909
 O          2.3147899778       -1.4297825907       -1.5959445731
 C          4.0383021039       -0.2171224304       -0.0008786351
 C          4.2895118955        1.0499496643        0.4874154835
 C          5.5981159830        1.4133766662        0.7666069089
 C          6.6254576941        0.5062367016        0.5579745333
 C          6.3566742467       -0.7636444501        0.0682674995
 C          5.0514606667       -1.1319045189       -0.2148014772
 H          4.7933841586       -2.1026898998       -0.6036203967
 H          7.1585770300       -1.4656982081       -0.0935555935
 H          7.6423669388        0.7914626970        0.7766549373
 H          5.8089750136        2.4005724365        1.1452678020
 H          3.4584361181        1.7223907283        0.6305924412
 H          2.0749065892       -1.3336370316        1.7647802634
 H          1.7478706193       -4.1948007128       -0.2881874754
 H         -0.4392758120       -5.2427194305       -0.8083422415
 H         -2.5301631005       -4.0780380431       -0.2663964945
 H         -2.7691577989       -1.2950801023        2.0051817562
 C         -4.0985224037       -2.2519877175        0.6683571087
 C         -5.3204965775       -1.4575129752        0.3183687594
 C         -4.7017317258       -2.3673499789       -0.6980102642
 H         -5.2218928667       -3.2806217923       -0.9480378498
 H         -4.1612099967       -1.9325914525       -1.5232742346
 H         -6.2636919405       -1.7409452837        0.7605484586
 H         -5.1989883216       -0.3916655378        0.1880681063
 H         -4.2497819601       -3.0949407132        1.3360484905
