  62
        -98.93984865
 C         -2.6415333902       -1.3241432948        0.3164693942
 C         -2.8784001046       -0.5115198000       -0.8197593967
 C         -3.8946954790        0.5384522218       -0.6526278258
 C         -4.5344878212        0.6809404090        0.5212663355
 C         -5.5985100938        1.6965921328        0.8371329040
 C         -5.0468446127        3.0677700650        1.2510836326
 C         -4.4393010740        3.8941565380        0.1168523645
 H         -5.1512376364        3.9572938844       -0.7067180068
 H         -4.2939887346        4.9060884382        0.5000506496
 C         -3.0945130350        3.3664291706       -0.4026799562
 H         -2.6667095400        2.6750411283        0.3273166183
 H         -2.3926257382        4.1971308015       -0.5056360271
 C         -3.1709792097        2.6681788035       -1.7605101615
 H         -3.4764163205        3.3857988529       -2.5253393754
 H         -2.1715068737        2.3089003180       -2.0193770367
 C         -4.1302369250        1.4713796817       -1.8027012550
 H         -5.1633223020        1.8180370803       -1.8052937877
 H         -3.9444709420        0.9162297772       -2.7255895691
 H         -4.3009749221        2.9215178332        2.0357223761
 H         -5.8750208142        3.6354805028        1.6812511395
 H         -6.2615838140        1.8131219914       -0.0205051869
 H         -6.1757841355        1.2915126657        1.6709617753
 O         -4.2857179077       -0.1248199008        1.5871122791
 C         -3.3346466754       -1.1271968216        1.5154782158
 O         -3.2028975376       -1.7792934113        2.5702742221
 H         -0.2798064969       -0.4601865912       -0.8765166142
 C          0.3005900217       -0.9119863093       -0.0851886839
 C         -0.2457358261       -1.9601514401        0.6430150109
 C          0.5203554142       -2.5433532567        1.6449836654
 C          1.8002014204       -2.0864555763        1.9082538449
 C          2.3399907389       -1.0409910521        1.1808426078
 C          1.5829536107       -0.4517076218        0.1764627740
 N          2.1194392360        0.6170982243       -0.5641511180
 S          3.6229339038        0.3883095088       -1.2792465203
 O          3.6551285291        1.3009289177       -2.4008081280
 O          3.8588180126       -1.0056341117       -1.5765837081
 C          4.7717971961        0.9522430494       -0.0414564566
 C          5.7915429616        0.1229239088        0.3824382751
 C          6.6802913711        0.5892526190        1.3388428392
 C          6.5345454703        1.8695538337        1.8505578586
 C          5.5062083391        2.6908542385        1.4123275661
 C          4.6152815348        2.2313576195        0.4557075606
 H          3.8049763401        2.8376597294        0.0862883354
 H          5.3960448251        3.6858681554        1.8125923487
 H          7.2265254213        2.2299851516        2.5952515180
 H          7.4805182973       -0.0472231887        1.6807294262
 H          5.8617689784       -0.8669445913       -0.0395513883
 H          1.4689462079        1.0004749406       -1.2352595383
 H          3.3361794250       -0.6814187044        1.3807896192
 H          2.3836500440       -2.5480067258        2.6901202912
 H          0.1020878094       -3.3533952119        2.2244835821
 C         -1.6331034921       -2.4620499357        0.3340603883
 H         -1.9449732413       -3.1058835301        1.1712125361
 C         -1.6849372500       -3.3112555452       -0.9308133507
 C         -0.5753621196       -3.3896675707       -1.9323039139
 C         -0.8510663799       -4.5540880880       -1.0320272581
 H         -1.2943276918       -5.4440503892       -1.4522141130
 H         -0.1456490759       -4.7433347076       -0.2368298393
 H         -0.8487455489       -3.4591732703       -2.9744091968
 H          0.3209922206       -2.8132301184       -1.7612181444
 H         -2.6913149129       -3.3711183065       -1.3329725410
 O         -2.2855330661       -0.6329621669       -1.9238799518
