  62
        -98.93866880
 C          1.1704753737        1.8556255547       -0.3765648309
 C          1.3114712704        0.5198513530       -0.8180614199
 C          2.6208402846       -0.1253530534       -0.5759752156
 C          3.5829890204        0.5633160089        0.0636882953
 C          4.9480660777        0.0849888859        0.4793843144
 C          4.8995363653       -0.8332296804        1.7129292820
 C          3.7780433544       -1.8697126430        1.7051678922
 H          3.7775891883       -2.3624877133        2.6810195416
 H          2.8184607379       -1.3601151804        1.5991861523
 C          3.8993058637       -2.9512701206        0.6347805930
 H          4.8337620901       -3.4974111340        0.7827702679
 H          3.0752417189       -3.6518417378        0.7870011567
 C          3.8486828854       -2.4626274519       -0.8134201196
 H          3.7209595590       -3.3423979548       -1.4506542996
 H          4.7921145917       -2.0083076412       -1.1038052563
 C          2.6865702990       -1.5269374426       -1.1319455558
 H          2.6205665626       -1.4147017782       -2.2211258759
 H          1.7487811682       -2.0067261564       -0.8336873386
 H          5.8634874054       -1.3362899888        1.8062928991
 H          4.7618861964       -0.2027734193        2.5948764941
 H          5.4407070997       -0.4069394352       -0.3539978773
 H          5.5300893516        0.9743389325        0.7309542055
 O          3.3986523934        1.8477338179        0.4835699238
 C          2.2164877452        2.5221767713        0.2686974703
 O          2.2138488487        3.6982235182        0.6872724232
 H         -1.4588464551        0.3297314963       -0.2198975696
 C         -1.7246604107        1.0642724373        0.5233129438
 C         -1.1181887998        2.3130979179        0.5055061335
 C         -1.4543057574        3.2361925140        1.4894535060
 C         -2.3857700262        2.9206305827        2.4621645897
 C         -3.0074377041        1.6855768503        2.4621323275
 C         -2.6707786229        0.7512996497        1.4879922900
 N         -3.2612496524       -0.5179748591        1.4892812966
 S         -3.5394649279       -1.3607755325        0.0730645106
 O         -3.8409415153       -0.4797061214       -1.0301861691
 O         -4.5883409700       -2.2975865264        0.4279672820
 C         -2.0589675883       -2.2983774605       -0.2284477534
 C         -1.7059947478       -2.5841468306       -1.5309066767
 C         -0.6173537879       -3.4074656337       -1.7655393257
 C          0.0966393565       -3.9273971115       -0.6974956210
 C         -0.2657586162       -3.6233184313        0.6060111109
 C         -1.3565852732       -2.8043245182        0.8463999723
 H         -1.6648843061       -2.5480938575        1.8466461090
 H          0.2990976974       -4.0195350312        1.4351797981
 H          0.9430142811       -4.5705822242       -0.8836570053
 H         -0.3253278252       -3.6328565867       -2.7786605650
 H         -2.2807880042       -2.1494822493       -2.3330277149
 H         -4.0009702185       -0.6527094217        2.1624542570
 H         -3.7436583107        1.4404941318        3.2125951633
 H         -2.6371601341        3.6458297377        3.2213049584
 H         -0.9686730013        4.2013840523        1.4931106465
 C         -0.1037756254        2.6664838140       -0.5557625252
 H          0.1924908251        3.7127335308       -0.3981754424
 C         -0.7050698527        2.5477440401       -1.9422258448
 C         -1.5909198531        3.6472052406       -2.4422476367
 C         -0.2252808991        3.4577083464       -3.0304879637
 H         -0.1423422332        3.0642446642       -4.0324438615
 H          0.5413834795        4.1765435173       -2.7787730200
 H         -2.4517144571        3.3814445808       -3.0367314344
 H         -1.7495500802        4.4968389710       -1.7950057237
 H         -0.9618676650        1.5339442713       -2.2192863532
 O          0.4030115758       -0.1390427212       -1.3908766592
