  62
        -98.93548382
 C          1.7378502644        1.0699340563        0.4138843401
 C          2.1948086556       -0.0963320619       -0.2400050317
 C          3.6584223100       -0.2517784939       -0.3623464115
 C          4.4630684971        0.6906938681        0.1611039844
 C          5.9696845611        0.7554441105        0.1589971247
 C          6.7158107983       -0.5466432360        0.4885180724
 C          7.4368088567       -1.1552877781       -0.7153724344
 H          7.8814459340       -0.3469144674       -1.2995237781
 H          8.2540463945       -1.7827367311       -0.3527775231
 C          6.5642686978       -2.0163426048       -1.6272460400
 H          7.1559341851       -2.2666026987       -2.5110313227
 H          6.3262324689       -2.9540073124       -1.1201832041
 C          5.2542605688       -1.3695823554       -2.0820702201
 H          5.4114498891       -0.3203596593       -2.3293532479
 H          4.9368314655       -1.8686548078       -3.0002673728
 C          4.1142037899       -1.5036747659       -1.0610744923
 H          4.3740086697       -2.2531975099       -0.3076405271
 H          3.2161159565       -1.8821283646       -1.5598696245
 H          7.4645937843       -0.3180760267        1.2486534873
 H          6.0265506780       -1.2694885240        0.9222360461
 H          6.2985686495        1.1355595142       -0.8113090486
 H          6.2203918999        1.5230329435        0.8946352803
 O          3.9737454438        1.8002940947        0.7860582773
 C          2.6168847892        2.0222696348        0.9263072548
 O          2.3237823177        3.0782945597        1.5222086891
 O          1.4202347535       -0.9746335743       -0.7042837002
 C          0.2497487773        1.3220633157        0.5718066820
 C         -0.4160459141        0.1557199922        1.2596450202
 C          0.1765191431       -0.3865471982        2.3971669034
 C         -0.4001209743       -1.4574599924        3.0509880546
 C         -1.5838310903       -2.0059892435        2.5901627061
 C         -2.1956207616       -1.4595936667        1.4682757795
 C         -1.6165872422       -0.3782471649        0.8170106000
 H         -2.0981994818        0.0204177034       -0.0597049427
 N         -3.4232983970       -1.9615858183        1.0245908012
 S         -3.9975886899       -1.7676366183       -0.5267278909
 O         -5.1198544193       -2.6803925482       -0.5982302202
 O         -2.9761197344       -1.9505004020       -1.5303588491
 C         -4.6133988059       -0.0964645570       -0.5694434245
 C         -5.1770433802        0.4498303409        0.5665185523
 C         -5.6889103878        1.7362369315        0.5071853392
 C         -5.6392734533        2.4483236376       -0.6813230338
 C         -5.0769291682        1.8834134594       -1.8152935309
 C         -4.5574879857        0.5992812613       -1.7608007240
 H         -4.0989794622        0.1267362282       -2.6153628487
 H         -5.0396443448        2.4376277961       -2.7397947179
 H         -6.0391506976        3.4490062927       -0.7250728530
 H         -6.1253546211        2.1792158315        1.3878743354
 H         -5.2003254603       -0.1287178000        1.4746740686
 H         -3.7366213987       -2.8158959708        1.4588968994
 H         -2.0301351206       -2.8499070316        3.0934430403
 H          0.0779945094       -1.8744143162        3.9247306179
 H          1.1059641053        0.0369294125        2.7536825891
 H          0.1613562347        2.2014313294        1.2272035910
 C         -0.3636868665        1.6572406797       -0.7722326284
 C         -1.5312677897        2.5926093995       -0.8568352386
 C         -0.1789054273        3.0378131763       -1.3240023072
 H         -0.0080158708        3.1507687397       -2.3840445760
 H          0.3699149416        3.7419305712       -0.7154422583
 H         -2.2927928931        2.3995171451       -1.5971071656
 H         -1.9098413367        3.0041975137        0.0664124594
 H         -0.3188136651        0.8271497268       -1.4692746362
