  62
        -98.94185330
 C         -2.7741413041       -0.3261706834       -0.2830257620
 C         -2.0218670811        0.5080684659       -1.1456090251
 C         -2.0575814168        1.9467735290       -0.8448778504
 C         -2.8047653064        2.3958184324        0.1782529130
 C         -2.8944921600        3.8276871039        0.6178621721
 C         -1.8600682639        4.1477841078        1.7055398021
 C         -0.4386044652        3.6937931399        1.3710935850
 H          0.2069195611        4.0223404402        2.1891110169
 H         -0.3944141501        2.6014061997        1.3581445669
 C          0.1096019788        4.2319529218        0.0424103863
 H          1.1376277920        4.5637324927        0.2021253681
 H         -0.4687812513        5.1007767400       -0.2754351466
 C          0.1443855274        3.1980270407       -1.0847929221
 H          0.7781114126        3.5878027601       -1.8864474653
 H          0.6033075402        2.2788454625       -0.7091622883
 C         -1.2154425372        2.8471997519       -1.7037454820
 H         -1.7553094863        3.7630547614       -1.9528879667
 H         -1.0309780262        2.2936358831       -2.6289678779
 H         -1.8659618223        5.2258878943        1.8778513164
 H         -2.1655383507        3.6539299082        2.6309967072
 H         -3.8942963542        3.9997030001        1.0205799818
 H         -2.7437312209        4.4758339854       -0.2432311452
 O         -3.5499659257        1.5729278160        0.9595048089
 C         -3.5246096796        0.2030248651        0.7723056300
 O         -4.2181735668       -0.4348883571        1.5903546290
 O         -1.3446692396        0.1001860822       -2.1284423580
 C         -2.7704770350       -1.8476146878       -0.3724581693
 C         -1.5114498758       -2.3534120926        0.2907287891
 C         -1.5546123451       -3.0674696778        1.4822376190
 C         -0.3860282255       -3.4259758273        2.1331671295
 C          0.8477943951       -3.0622345380        1.6222370277
 C          0.8971014804       -2.3532181935        0.4305786747
 C         -0.2707238403       -2.0269118936       -0.2376578493
 H         -0.2182424908       -1.4584161914       -1.1542333414
 N          2.1501083892       -1.9000282420       -0.0666505002
 S          2.6561195726       -0.5463151643        0.8250815032
 O          3.0115530655       -0.9994062065        2.1465849000
 O          1.6587586215        0.4997143498        0.7597615157
 C          4.1224972096       -0.0672990436       -0.0673411965
 C          4.0638974563        0.9874192118       -0.9572488139
 C          5.2035655597        1.3256509504       -1.6703929923
 C          6.3728676958        0.6038190544       -1.4852421438
 C          6.4147126351       -0.4543527618       -0.5892547529
 C          5.2797965541       -0.7964515256        0.1280774619
 H          5.2653083663       -1.6044801535        0.8402888005
 H          7.3262801227       -1.0122100606       -0.4480795595
 H          7.2574591563        0.8690206479       -2.0423965374
 H          5.1731526615        2.1485193012       -2.3663835330
 H          3.1342330205        1.5236355026       -1.0665104491
 H          2.0460042568       -1.5948438602       -1.0282859348
 H          1.7631428720       -3.2902399652        2.1433507091
 H         -0.4375465227       -3.9765597594        3.0604545834
 H         -2.5140302060       -3.3139180240        1.9142245262
 H         -3.6272425695       -2.1853405193        0.2255382570
 C         -2.9277460701       -2.3800750185       -1.7820267280
 C         -3.4105259773       -3.7852359425       -1.9740580603
 C         -4.3029631889       -2.6318763363       -2.3192972978
 H         -4.4950278112       -2.4182992059       -3.3599382808
 H         -5.1396052686       -2.4207075687       -1.6690527903
 H         -2.9892763659       -4.3683852820       -2.7783374159
 H         -3.6440188770       -4.3586142190       -1.0896609751
 H         -2.1883093857       -2.0008182189       -2.4740991413
