  62
        -98.93218855
 C          2.5218359141        0.3643206522        0.6310052258
 C          1.9980902632       -0.2236757826       -0.5452742859
 C          1.6101175209       -1.6449691434       -0.4592780971
 C          1.8354320219       -2.3206728177        0.6804836018
 C          1.5143157107       -3.7542582867        1.0227662450
 C          1.7274293533       -4.8103155345       -0.0713314582
 C          0.4227909424       -5.3516128789       -0.6594527487
 H          0.6107356083       -6.3464596038       -1.0693661112
 H         -0.3014354161       -5.4624004446        0.1501773427
 C         -0.1933210447       -4.5034901719       -1.7709971004
 H          0.4096713798       -4.5991698966       -2.6765905085
 H         -1.1815934997       -4.9128475782       -1.9924570699
 C         -0.3399863794       -3.0154869826       -1.4492695503
 H         -1.1156301222       -2.5948526779       -2.0935235167
 H         -0.6826283801       -2.8663154138       -0.4245669914
 C          0.9443870017       -2.2061513552       -1.6845714280
 H          1.6661530226       -2.7971046792       -2.2562771686
 H          0.7083327613       -1.3303031198       -2.2973109057
 H          2.3615869168       -4.4067174135       -0.8585410515
 H          2.2630953835       -5.6474843461        0.3794743014
 H          2.1438179270       -3.9832725763        1.8863636248
 H          0.4799216141       -3.7877921853        1.3766203989
 O          2.4032405631       -1.7290220904        1.7717675015
 C          2.6906861789       -0.3772472215        1.7995813975
 O          3.0960510238        0.0389282266        2.9046666642
 O          1.8432941976        0.4037795317       -1.6263841767
 C          2.7720132432        1.8608437544        0.7298257307
 C          1.6101943078        2.5884807819        0.0944697816
 C          1.7427259728        3.6403923696       -0.8011734737
 C          0.6206261776        4.2138211474       -1.3754570497
 C         -0.6442559323        3.7308976958       -1.0980198333
 C         -0.7875199499        2.6817696070       -0.1969562913
 C          0.3309975042        2.1546602714        0.4229353324
 H          0.2095197150        1.3426042677        1.1250955552
 N         -2.0584223842        2.1404901678        0.1036512082
 S         -2.2265498422        0.4663091158       -0.1091340628
 O         -1.4529406151       -0.2311969387        0.8863021121
 O         -1.9862350857        0.1179955582       -1.4914003322
 C         -3.9633458480        0.2927898706        0.2606989716
 C         -4.8671165587        0.0696878677       -0.7599883389
 C         -6.2148257983       -0.0344387016       -0.4518775517
 C         -6.6331893380        0.0890802400        0.8641616185
 C         -5.7137290174        0.3129407897        1.8786047972
 C         -4.3652828819        0.4163513763        1.5769713329
 H         -3.6134090571        0.5825930324        2.3310090986
 H         -6.0421390088        0.4067759334        2.9011680119
 H         -7.6820668279        0.0085776614        1.1020149196
 H         -6.9311438052       -0.2109614714       -1.2379840318
 H         -4.4937874178       -0.0245822464       -1.7670529333
 H         -2.7837994331        2.5936073132       -0.4400357943
 H         -1.5137056401        4.1513968258       -1.5814275691
 H          0.7369315781        5.0291896014       -2.0735408267
 H          2.7227689295        3.9952497537       -1.0749504930
 H          2.7554078204        2.0766551209        1.8119136569
 C          4.1301276817        2.3167769755        0.2172841364
 C          5.2771909148        1.3583930274        0.1059657759
 C          4.6420037740        1.9133461670       -1.1315888246
 H          5.1958394217        2.6392281857       -1.7088829832
 H          4.0137032042        1.2667860108       -1.7234531296
 H          6.2613985315        1.7057786647        0.3827572678
 H          5.0915752240        0.3243777303        0.3588467518
 H          4.3787239346        3.3178757607        0.5556731090
