  62
        -98.93964147
 C          2.2445854462        0.7617125563        0.1573216125
 C          2.4243607277       -0.4663216257        0.8386811453
 C          3.2214456926       -1.4783109617        0.1376794162
 C          3.6763674326       -1.2253492833       -1.1031298415
 C          4.4862836604       -2.1628548415       -1.9569614227
 C          5.9921708072       -2.1287975116       -1.6612808180
 C          6.4121511320       -2.7870717535       -0.3463654024
 H          5.9954735082       -3.7934921967       -0.2959869975
 H          7.4992149169       -2.8856154936       -0.3707642532
 C          6.0170512767       -2.0002539362        0.9111559026
 H          5.7749144631       -0.9710557909        0.6361543208
 H          6.8674827542       -1.9563902655        1.5952859533
 C          4.8418363805       -2.5939812727        1.6878899537
 H          4.6267696423       -1.9390470861        2.5361019203
 H          5.1203081060       -3.5740283420        2.0815248510
 C          3.5542182197       -2.7449851892        0.8671577163
 H          3.6497666033       -3.5741651601        0.1666022815
 H          2.7322278687       -2.9590646186        1.5545799226
 H          6.4965264785       -2.6476144383       -2.4797319851
 H          6.3264700549       -1.0887943126       -1.6716302754
 H          4.1142220843       -3.1810555104       -1.8404005460
 H          4.3312968571       -1.8517735478       -2.9922720269
 O          3.4258215635       -0.0568369765       -1.7504828797
 C          2.7226123011        0.9707476559       -1.1368323490
 O          2.5948710131        1.9899492042       -1.8400672372
 O          1.9374329230       -0.7064590500        1.9769755131
 C          1.4639469845        1.8669640562        0.8479362572
 C          0.1609041222        2.0843287450        0.1183032450
 C         -0.1683521467        3.2605323545       -0.5400458326
 C         -1.3778890898        3.3727860877       -1.2050362855
 C         -2.2800332150        2.3258567784       -1.2241793175
 C         -1.9648564358        1.1470107399       -0.5590196168
 C         -0.7540381462        1.0373051918        0.1074670282
 H         -0.5030570127        0.1201446953        0.6260843971
 N         -2.8718187742        0.0691092434       -0.5786520008
 S         -4.4948001149        0.4401436998       -0.2827258068
 O         -5.0820965241        0.9231238488       -1.5072886193
 O         -4.6018997922        1.3219278314        0.8582777839
 C         -5.1553289701       -1.1675887841        0.1077462675
 C         -5.2912939413       -1.5399859874        1.4315710891
 C         -5.7889388250       -2.7998243401        1.7254192444
 C         -6.1367722883       -3.6616972096        0.6961756003
 C         -5.9938263378       -3.2735664866       -0.6278056227
 C         -5.4985105965       -2.0148511753       -0.9287251973
 H         -5.3799033704       -1.6663365341       -1.9413505808
 H         -6.2677748538       -3.9458595058       -1.4247607201
 H         -6.5246807662       -4.6410493185        0.9278291729
 H         -5.9037000733       -3.1033042550        2.7535903666
 H         -5.0164879318       -0.8344005427        2.1993152504
 H         -2.5644721255       -0.6896813290        0.0150342118
 H         -3.2259288675        2.4068122948       -1.7350140586
 H         -1.6212053880        4.2910870458       -1.7182915149
 H          0.5232596081        4.0864337131       -0.5422587154
 H          1.2264285134        1.4715927611        1.8463480014
 C          2.2999912882        3.1177212164        1.0084559085
 C          1.9261579889        4.1302572969        2.0480850070
 C          3.1428248768        3.2762739705        2.2370041076
 H          4.1156697552        3.7340505373        2.1386091427
 H          3.1048790531        2.4866578104        2.9733261348
 H          2.0633840512        5.1767717525        1.8224487751
 H          1.0592466989        3.9217936855        2.6568001826
 H          2.7132593748        3.4738029744        0.0722353910
