  62
        -98.94758432
 C          2.5299988330        0.2805653690        0.0080021204
 C          2.2229624347        1.2921056772       -0.9317532027
 C          1.5940673276        2.5043062618       -0.3935439135
 C          1.3680464551        2.5946826773        0.9297074223
 C          0.7340746379        3.7717197618        1.6134026518
 C         -0.7834352996        3.6009531026        1.7561582918
 C         -1.4936308099        3.2121461878        0.4592402603
 H         -1.2108242033        2.1917440997        0.1891240529
 H         -2.5655018534        3.1928486804        0.6722535840
 C         -1.2274988988        4.1464264851       -0.7287753108
 H         -2.1732297718        4.3282819396       -1.2434002029
 H         -0.8595179402        5.1091703942       -0.3708306591
 C         -0.2580439006        3.5828119221       -1.7699710809
 H         -0.5504019658        2.5577233187       -2.0159294647
 H         -0.3503794528        4.1800508771       -2.6814407882
 C          1.2236484140        3.5840466936       -1.3704729476
 H          1.8133678951        3.3866761814       -2.2706605336
 H          1.5017286657        4.5680028551       -0.9860040355
 H         -1.1992880995        4.5367472299        2.1357161251
 H         -0.9756439119        2.8146395000        2.4898560543
 H          1.1729911941        3.8616258516        2.6089939914
 H          0.9566891126        4.6736211668        1.0458716311
 O          1.6894407642        1.6083187694        1.8052257100
 C          2.2273221189        0.4099038926        1.3634677543
 O          2.4134066393       -0.4323915179        2.2634351271
 H          0.4970550736       -0.8724426597       -0.9984346547
 C          0.7382603696       -1.8258862080       -0.5512733014
 C          2.0583736353       -2.1185552185       -0.2352172536
 C          2.3467360665       -3.3609268769        0.3134663379
 C          1.3274589802       -4.2629388388        0.5702908272
 C          0.0078717064       -3.9410440739        0.3104718315
 C         -0.2873008974       -2.7063825093       -0.2568194520
 N         -1.6099967614       -2.3181555321       -0.5421150000
 S         -1.9710705023       -0.6858842820       -0.2616312354
 O         -1.6326398320        0.0698682865       -1.4417709795
 O         -1.3759944167       -0.2548076135        0.9821888862
 C         -3.7454448132       -0.7676585206       -0.1037468260
 C         -4.5131719851       -0.8126954688       -1.2521275266
 C         -5.8903956255       -0.9110386767       -1.1333290329
 C         -6.4735476614       -0.9621071535        0.1242115590
 C         -5.6902951955       -0.9131636059        1.2676041953
 C         -4.3119704221       -0.8167750967        1.1556912952
 H         -3.6619463320       -0.7668732146        2.0148021280
 H         -6.1459560124       -0.9489897159        2.2439940491
 H         -7.5456430275       -1.0375767825        0.2140090575
 H         -6.5025833911       -0.9462016346       -2.0199034177
 H         -4.0144418596       -0.7596651577       -2.2057726165
 H         -2.2948347375       -2.9253171527       -0.1115810383
 H         -0.7862748468       -4.6334921012        0.5451882762
 H          1.5634315318       -5.2234095164        1.0030368302
 H          3.3654033816       -3.6170077967        0.5550840207
 C          3.0855221365       -1.0422988749       -0.4917876807
 H          3.1938975867       -0.9211684678       -1.5805280565
 C          4.4431922880       -1.3369919079        0.1073153933
 C          5.4337564197       -2.1722456764       -0.6461937341
 C          5.6557425858       -0.6979546068       -0.4982991754
 H          6.4398434705       -0.3550988994        0.1597170764
 H          5.5027353906       -0.0664053514       -1.3613688177
 H          6.0710677275       -2.8428470572       -0.0899523136
 H          5.1381114724       -2.5441151422       -1.6155483183
 H          4.4097024377       -1.4254112137        1.1871923592
 O          2.4718164973        1.1869551179       -2.1650938572
