  62
        -98.93321459
 C         -1.7443867465       -1.3863634196        0.4504600119
 C         -1.5828608710       -0.2359738398       -0.3603735013
 C         -2.8176702883        0.3399550526       -0.9293216797
 C         -4.0046811300       -0.2269956234       -0.6594093856
 C         -5.3708898460        0.1655048632       -1.1631688303
 C         -5.7168559014        1.6611744711       -1.1769129135
 C         -5.0688951598        2.4895970442       -0.0578101556
 H         -5.8411311437        3.0802846738        0.4385945476
 H         -4.6310626861        1.8299045420        0.6934401011
 C         -3.9990251027        3.4562612537       -0.5721837421
 H         -4.3665576593        3.9319102806       -1.4842162737
 H         -3.8510526526        4.2445327257        0.1699922434
 C         -2.6299173005        2.8360831561       -0.8499203501
 H         -2.1443897998        2.5654354597        0.0924126218
 H         -2.0022240465        3.5989289615       -1.3177227417
 C         -2.6389791166        1.5870940432       -1.7462596209
 H         -3.3904046521        1.6687140113       -2.5281325079
 H         -1.6541374468        1.5076373001       -2.2146383564
 H         -5.4411405758        2.0907642644       -2.1390253413
 H         -6.8029753722        1.7341322822       -1.1003004784
 H         -5.4908072212       -0.2383421487       -2.1725924784
 H         -6.0740748691       -0.3665690211       -0.5180159019
 O         -4.1158730653       -1.3258843880        0.1392938656
 C         -3.0086049909       -1.9139365733        0.7243161632
 O         -3.2775043274       -2.8859492116        1.4584682437
 H          1.9034898900       -0.9939526680        0.5126699588
 C          1.4956662365       -0.6104685484        1.4333904692
 C          0.2537187817       -1.0402106226        1.8761570129
 C         -0.2600893760       -0.5059749360        3.0548743202
 C          0.4561794708        0.4235356230        3.7832899944
 C          1.6979901417        0.8441821598        3.3416470602
 C          2.2134946442        0.3322463732        2.1579902627
 N          3.4813921257        0.7392632165        1.6912222592
 S          3.5332981409        1.6127609449        0.2500314491
 O          4.7980707230        2.3195316965        0.3149356381
 O          2.3619961976        2.4424878669        0.0951047219
 C          3.6421016502        0.3889845077       -1.0347013311
 C          4.8419288459       -0.2803813539       -1.1812346056
 C          4.9699944615       -1.2090649270       -2.2006950327
 C          3.9044071091       -1.4418665426       -3.0577491078
 C          2.7076964203       -0.7613089976       -2.8947224752
 C          2.5672818130        0.1626925501       -1.8698786113
 H          1.6417876186        0.6865978043       -1.6903541852
 H          1.8774073591       -0.9469624407       -3.5577263042
 H          4.0053276266       -2.1590120322       -3.8574772585
 H          5.8974513299       -1.7438199114       -2.3281906645
 H          5.6488994681       -0.0520640359       -0.5049841518
 H          4.0121001915        1.2482028838        2.3859486151
 H          2.2637209637        1.5717993279        3.9051494159
 H          0.0465291326        0.8249392839        4.6982153842
 H         -1.2340709517       -0.8335865193        3.3937304839
 C         -0.5710528136       -2.0651441949        1.1381133255
 H         -1.0350813423       -2.7184492696        1.8952399404
 C          0.2581772470       -2.9730794031        0.2432533012
 C         -0.4208047234       -3.8761957173       -0.7427155104
 C          0.4362875859       -2.7469229593       -1.2255421801
 H          1.3966984084       -2.9817961236       -1.6602101862
 H         -0.0431438919       -1.8875998288       -1.6649342239
 H         -0.0572436188       -4.8865373266       -0.8530459984
 H         -1.4931233128       -3.7839702539       -0.8399483154
 H          1.1057300340       -3.3927053865        0.7766205297
 O         -0.4724451558        0.2888937991       -0.6250221756
