  62
        -98.94334829
 C         -2.5541647625       -0.0373198708       -0.1406876578
 C         -2.4113116076       -1.1772775625       -0.9703404852
 C         -1.8983982750       -2.3936930338       -0.3292513381
 C         -1.5971321615       -2.3665501387        0.9811957602
 C         -1.0315319808       -3.5202886499        1.7572247020
 C          0.5017408275       -3.4790063787        1.7840748404
 C          1.1474132215       -3.3122515571        0.4080045732
 H          0.9406364851       -2.3052298942        0.0362426633
 H          2.2293815093       -3.3733703698        0.5507956037
 C          0.7124036977       -4.3458975623       -0.6398439544
 H          1.5982155315       -4.6792099686       -1.1843839571
 H          0.2846899981       -5.2194808731       -0.1458069664
 C         -0.2737084022       -3.8142141089       -1.6819787500
 H          0.0969635385       -2.8634655100       -2.0761712254
 H         -0.3089644861       -4.5244627641       -2.5127585331
 C         -1.7138916412       -3.6081838283       -1.1944666812
 H         -2.0618741673       -4.5068218801       -0.6803424394
 H         -2.3444116002       -3.4476659892       -2.0740475109
 H          0.8135957111       -2.6327482104        2.4008403179
 H          0.8621262526       -4.3988633429        2.2495077858
 H         -1.4034800649       -3.4574353881        2.7816546456
 H         -1.3739734628       -4.4527369494        1.3120313794
 O         -1.7545979406       -1.2609082028        1.7500606012
 C         -2.1723808968       -0.0563423829        1.2030483300
 O         -2.1818250410        0.8870175395        2.0160361200
 O         -2.6966304882       -1.1742990424       -2.1998700491
 C         -2.9380331686        1.2734344640       -0.8097445262
 C         -1.8674559335        2.2876624624       -0.4920274854
 C         -2.0981356829        3.5445104332        0.0484479023
 C         -1.0322672167        4.3693917016        0.3686341018
 C          0.2732642972        3.9532267676        0.1840651465
 C          0.5124215895        2.6993577816       -0.3681226663
 C         -0.5550894560        1.8990833033       -0.7305497333
 H         -0.3603025413        0.9270108180       -1.1611851705
 N          1.8197422286        2.2163623201       -0.5721579372
 S          2.0519346412        0.5630551490       -0.2795288976
 O          1.6951918240       -0.1698775371       -1.4694232492
 O          1.3923784955        0.1741422851        0.9450929258
 C          3.8223172684        0.5190753136       -0.0699603159
 C          4.6245589060        0.5158184744       -1.1953671923
 C          6.0011959733        0.5163836070       -1.0362008501
 C          6.5495173027        0.5204850984        0.2379210087
 C          5.7316940973        0.5209739316        1.3579072498
 C          4.3538644435        0.5222436699        1.2055351303
 H          3.6770127992        0.5144201180        2.0451733592
 H          6.1599371037        0.5200856003        2.3472846923
 H          7.6211908892        0.5201815761        0.3591076379
 H          6.6400298978        0.5126893218       -1.9045054938
 H          4.1513943893        0.5026086019       -2.1633198751
 H          2.5152511057        2.7701418196       -0.0896705264
 H          1.1000432157        4.5855735133        0.4704164880
 H         -1.2225327108        5.3425148054        0.7956842349
 H         -3.1069988298        3.8667967014        0.2480710595
 H         -2.8769216834        1.0479179425       -1.8887870594
 C         -4.3550153481        1.7593618435       -0.5547501864
 C         -5.4384246732        0.8018775683       -0.1594834705
 C         -4.9568602699        1.8320682438        0.8153508593
 H         -5.6087209386        2.6635983334        1.0409205820
 H         -4.3467308333        1.5135746616        1.6450216355
 H         -6.4169832989        0.9219082965       -0.5996846081
 H         -5.1549313720       -0.2276849713        0.0064836569
 H         -4.6413835046        2.5427043269       -1.2503345728
