  62
        -98.94264084
 C          1.2025540506        1.5442324807        0.5360250617
 C          2.1854762620        1.3080210994       -0.4522033571
 C          3.2441290886        0.3433330755       -0.1024816481
 C          3.2037735317       -0.2682684974        1.0939312342
 C          4.1125554710       -1.3550274875        1.5970028785
 C          3.5090848613       -2.7367479611        1.2875137444
 C          3.8872914379       -3.3118585046       -0.0763459214
 H          4.9447024158       -3.5863228615       -0.0723450972
 H          3.3075307423       -4.2280983164       -0.2109517836
 C          3.6216305050       -2.3871526630       -1.2671078660
 H          3.5632798028       -3.0065067209       -2.1646501872
 H          2.6464808500       -1.9098102829       -1.1451205780
 C          4.7152276635       -1.3265912236       -1.4646683929
 H          5.0467346488       -1.3415837367       -2.5050084672
 H          5.5814091088       -1.5949183831       -0.8597186029
 C          4.2955896288        0.1181092211       -1.1544402689
 H          3.8810993597        0.5764937609       -2.0579210720
 H          5.1857190793        0.6973898317       -0.8870393055
 H          2.4198184553       -2.6563715020        1.3546168653
 H          3.8328433006       -3.4430146759        2.0551420454
 H          5.1079178731       -1.2564451407        1.1739782462
 H          4.1751429415       -1.2361787862        2.6807096567
 O          2.2394574645       -0.0095235579        2.0191138532
 C          1.2070803729        0.8700882682        1.7560178255
 O          0.3641410830        0.9678311194        2.6726114722
 O          2.1742969708        1.8609804596       -1.5837391349
 C          0.0198374669        2.4446810652        0.2322394476
 C         -0.8046082872        1.8433072616       -0.8830314017
 C         -1.4537385047        2.5956853344       -1.8538807469
 C         -2.2103985727        1.9698205308       -2.8302722819
 C         -2.3553873585        0.5939881439       -2.8512515640
 C         -1.7132412678       -0.1665822270       -1.8808334182
 C         -0.9476898374        0.4636966785       -0.9146603903
 H         -0.4326792748       -0.1407338973       -0.1850351874
 N         -1.8172588887       -1.5652336492       -1.8519564479
 S         -1.8467644951       -2.3615515285       -0.3807082300
 O         -0.5365082171       -2.3717436793        0.2200282680
 O         -2.4033284497       -3.6604600093       -0.6957242952
 C         -3.0121447400       -1.4372485988        0.6047439196
 C         -4.3443039912       -1.5334486065        0.2475030724
 C         -5.2849765902       -0.7945152064        0.9443497801
 C         -4.8796040207        0.0324143379        1.9816199174
 C         -3.5416075172        0.1135763175        2.3318874017
 C         -2.5946430754       -0.6269989147        1.6401052675
 H         -1.5489634860       -0.5709267997        1.9010524879
 H         -3.2154687423        0.7521231517        3.1375647346
 H         -5.6090783677        0.6143023049        2.5225154160
 H         -6.3270965396       -0.8617932625        0.6768514479
 H         -4.6195153341       -2.1971628713       -0.5560265840
 H         -2.4684400648       -1.9631767061       -2.5121292963
 H         -2.9471004627        0.1116270252       -3.6137710282
 H         -2.7011838452        2.5645847769       -3.5855143785
 H         -1.3598720527        3.6693196333       -1.8513473825
 H         -0.6022373622        2.4420064271        1.1405700395
 C          0.4676800568        3.8640424313       -0.0459670304
 C         -0.4094103626        5.0198233904        0.3287835838
 C          0.8382410627        4.7419864959        1.1103959590
 H          1.6789596211        5.4104835151        1.0019752062
 H          0.7405148254        4.3223063536        2.1014080951
 H         -0.4242726156        5.8855167956       -0.3160761744
 H         -1.3570021273        4.7992724972        0.7966527090
 H          1.0661115742        3.9421234359       -0.9457924804
