  62
        -98.94151255
 C         -2.3751802032       -1.2290516256        0.1639173952
 C         -3.3157601071       -0.5659196156        0.9925086144
 C         -4.1172619173        0.4877622851        0.3564556014
 C         -3.8980405589        0.7874356391       -0.9365383546
 C         -4.6034499166        1.8717689263       -1.6975012110
 C         -3.8388633552        3.1999679127       -1.6104545323
 C         -3.4407238445        3.5914702889       -0.1872463785
 H         -2.7076492265        2.8725731575        0.1873786966
 H         -2.9364559356        4.5587140152       -0.2451106449
 C         -4.6140555226        3.6825119262        0.7987491514
 H         -5.5527235092        3.7632922380        0.2496514151
 H         -4.5040024971        4.5944505153        1.3892261446
 C         -4.7038655155        2.5188925115        1.7878508435
 H         -3.7346458796        2.3747689331        2.2722981419
 H         -5.4211118667        2.7899735488        2.5669882556
 C         -5.1539487249        1.1754594386        1.2000335730
 H         -5.3567644651        0.4997104143        2.0360584699
 H         -6.0788053672        1.3126151763        0.6361656587
 H         -4.4598053124        3.9852984409       -2.0451983816
 H         -2.9281854651        3.1161403592       -2.2087059393
 H         -4.6697620434        1.5697855543       -2.7440745765
 H         -5.6090459877        1.9924797417       -1.2991222960
 O         -2.9606888623        0.1601001451       -1.6901604912
 C         -2.1662906553       -0.8532117404       -1.1644240963
 O         -1.3408412390       -1.3136910609       -1.9735655566
 H         -0.1056911847       -0.1694504775        1.3675570130
 C          0.5029074110       -0.9010014906        0.8484394935
 C         -0.0746126240       -2.1054344910        0.4640988614
 C          0.7108902365       -3.0286961113       -0.2118658574
 C          2.0351589154       -2.7441716887       -0.4968495407
 C          2.6048407564       -1.5446313418       -0.1126180192
 C          1.8266935995       -0.6108183602        0.5593752981
 N          2.3970290446        0.6093842693        0.9646463206
 S          3.2680619028        1.4972300454       -0.1642943656
 O          3.2082805967        2.8628818861        0.3119249208
 O          2.7986517384        1.2658012156       -1.5104628328
 C          4.9331397613        0.8933864794        0.0202089302
 C          5.5017885632        0.9216222976        1.2786581005
 C          6.7986323365        0.4599587795        1.4370595023
 C          7.5021064458       -0.0161754075        0.3405731225
 C          6.9185381257       -0.0340043443       -0.9169333505
 C          5.6209215556        0.4252658169       -1.0821037128
 H          5.1231744636        0.4243098864       -2.0389655354
 H          7.4665114629       -0.4041579751       -1.7684863006
 H          8.5111654576       -0.3755690991        0.4666274016
 H          7.2556421839        0.4721154224        2.4133983059
 H          4.9223305432        1.3020556927        2.1030810832
 H          1.7551051702        1.2094413077        1.4625726279
 H          3.6335675082       -1.3182549177       -0.3404285812
 H          2.6322851380       -3.4674345300       -1.0309945690
 H          0.2795146947       -3.9593268863       -0.5412907854
 C         -1.5299618524       -2.3213785468        0.7958247248
 H         -1.6540008211       -2.1645343882        1.8809101153
 C         -2.0137363728       -3.7349840592        0.5106053040
 C         -3.4594793684       -4.0141522670        0.2312441069
 C         -2.4409226677       -4.1819840808       -0.8541102993
 H         -2.1877971044       -5.1847468891       -1.1662691737
 H         -2.4091778720       -3.4561987514       -1.6512632062
 H         -3.9040797627       -4.8979993162        0.6634011888
 H         -4.1312693028       -3.1697497093        0.1759097423
 H         -1.4950861863       -4.4677185973        1.1212357396
 O         -3.4740522358       -0.8400968425        2.2124867688
