  62
        -98.92983449
 C          2.3756531515        0.9933983367        0.3673586366
 C          2.9335378407       -0.0327989070        1.1677852062
 C          3.8546503846       -0.9813580263        0.5115256137
 C          4.0726896528       -0.8563934301       -0.8105391747
 C          4.9396590350       -1.7061408661       -1.7018271442
 C          4.3050058171       -3.0660643848       -2.0310216399
 C          3.6862801829       -3.7900223621       -0.8384892541
 H          3.1907177616       -4.6880695496       -1.2166058527
 H          2.9153628367       -3.1564209744       -0.3963045882
 C          4.6732601819       -4.2211762957        0.2438514129
 H          5.4333765134       -4.8672049080       -0.2008120680
 H          4.1160509196       -4.8169700270        0.9712853545
 C          5.3755743470       -3.0899926423        0.9987967664
 H          6.1912758116       -2.6721457120        0.4147638442
 H          5.8281021557       -3.5278697351        1.8932865563
 C          4.4507480441       -1.9759697969        1.4787483581
 H          4.9865084162       -1.3748415877        2.2235069028
 H          3.6067769774       -2.4169240622        2.0214090510
 H          5.0668500686       -3.6989011498       -2.4894420869
 H          3.5151307663       -2.9007417317       -2.7679031179
 H          5.9208448855       -1.8358204249       -1.2546682952
 H          5.0694240419       -1.1492984422       -2.6325811748
 O          3.4577499913        0.1043513510       -1.5565782505
 C          2.6070136397        1.0505662738       -1.0076221904
 O          2.1436251399        1.8520534745       -1.8386425349
 O          2.6740811031       -0.1608330386        2.3954258272
 C          1.4671114160        2.0002466119        1.0496083132
 C          0.1873860381        2.1742180000        0.2717164489
 C         -0.1314724922        3.3347616890       -0.4199461991
 C         -1.3188321672        3.4241413380       -1.1248894579
 C         -2.2112906847        2.3688636839       -1.1515550266
 C         -1.9069138871        1.2055196964       -0.4563232048
 C         -0.7171079607        1.1193022127        0.2520282026
 H         -0.4749855945        0.2112883877        0.7911529150
 N         -2.8051072516        0.1213581881       -0.4854317817
 S         -4.4471372108        0.4885710560       -0.3180023554
 O         -4.9632905608        0.8703964376       -1.6086248084
 O         -4.6338527020        1.4499265930        0.7455546148
 C         -5.1175024715       -1.0943323331        0.1512770263
 C         -5.3521264538       -1.3598205929        1.4870560555
 C         -5.8621200974       -2.5980235989        1.8447206867
 C         -6.1241824107       -3.5451696199        0.8662788042
 C         -5.8827342625       -3.2640197110       -0.4704319004
 C         -5.3746299465       -2.0274825838       -0.8352970947
 H         -5.1820103394       -1.7608998211       -1.8613847734
 H         -6.0904385717       -4.0022548065       -1.2281162298
 H         -6.5223376022       -4.5074047453        1.1471792616
 H         -6.0537631638       -2.8180703326        2.8826216294
 H         -5.1425529564       -0.5900157036        2.2124849258
 H         -2.5307605477       -0.6167533708        0.1485233044
 H         -3.1399701126        2.4305238618       -1.6958999506
 H         -1.5520250138        4.3289224131       -1.6661320241
 H          0.5614799764        4.1598157728       -0.4273986039
 H          1.2144669678        1.5270993431        2.0132979218
 C          2.1434377974        3.3211566431        1.3857397334
 C          3.5928936846        3.3649451128        1.7642912790
 C          3.1354937106        3.9817761865        0.4782438381
 H          3.1205378534        5.0595212086        0.4049491833
 H          3.3778813373        3.4864198741       -0.4487518639
 H          3.8946609496        4.0158356973        2.5709637053
 H          4.1482853058        2.4394746218        1.7175696358
 H          1.4813165116        3.9789691504        1.9409561341
