  62
        -98.94431893
 C         -2.6277105009       -1.1062401577        0.1981007924
 C         -2.7308184711       -0.3073229411       -0.9666601327
 C         -3.5655941145        0.8940980780       -0.8399632559
 C         -4.1837149332        1.1616582303        0.3247932484
 C         -5.0885663441        2.3325894244        0.5984000847
 C         -4.3467636465        3.6193258912        0.9858328403
 C         -3.6016116882        4.3099494391       -0.1572074701
 H         -4.2814662479        4.4540416162       -0.9973191391
 H         -3.3118067498        5.2996928561        0.2012343456
 C         -2.3436454748        3.5685344239       -0.6316557613
 H         -1.5193069560        4.2777241112       -0.7347788196
 H         -2.0441709862        2.8395573477        0.1253414411
 C         -2.4976261512        2.8524638676       -1.9736488733
 H         -1.5634119753        2.3284732730       -2.1918036475
 H         -2.6652659398        3.5879530717       -2.7633293595
 C         -3.6362150994        1.8246941641       -2.0127512140
 H         -4.6007998227        2.3307330330       -2.0420135466
 H         -3.5252522496        1.2249574694       -2.9192225943
 H         -5.0889455689        4.3165383116        1.3813775329
 H         -3.6456871953        3.3893193541        1.7918619504
 H         -5.7160339588        2.5213745488       -0.2729758254
 H         -5.7300312441        2.0410693071        1.4328830381
 O         -4.0650667530        0.3615030856        1.4190207203
 C         -3.2676342110       -0.7722850080        1.3903284146
 O         -3.2094226865       -1.3878006724        2.4756574302
 H         -0.3322139186       -0.3033744174        1.0636742817
 C          0.2441629596       -0.9097808393        0.3740425306
 C         -0.3510769501       -2.0250432823       -0.2029098431
 C          0.4072222378       -2.8031254403       -1.0678018920
 C          1.7152264667       -2.4562659054       -1.3597441384
 C          2.2952867592       -1.3338891484       -0.7988031972
 C          1.5512934961       -0.5558131314        0.0786827194
 N          2.1329181910        0.5911711241        0.6507699981
 S          3.5877298774        0.3961487822        1.4703615156
 O          3.7069319953       -0.9336052075        2.0227752280
 O          3.6401292933        1.4915414805        2.4142189141
 C          4.8255460664        0.6504045069        0.2165054687
 C          4.8092637211        1.8413193255       -0.4828399478
 C          5.7716846699        2.0584218028       -1.4558570863
 C          6.7300292585        1.0881883757       -1.7093076831
 C          6.7347011699       -0.1006727024       -0.9959435748
 C          5.7738594141       -0.3249095506       -0.0220919344
 H          5.7341428944       -1.2357031218        0.5537702937
 H          7.4806998442       -0.8533575894       -1.1942155647
 H          7.4778813836        1.2601568160       -2.4672332738
 H          5.7711134418        2.9816270478       -2.0126509081
 H          4.0498759815        2.5700086890       -0.2528008394
 H          1.4899118617        1.1313280567        1.2115270521
 H          3.3103046689       -1.0554735962       -1.0306201702
 H          2.2897737713       -3.0674726122       -2.0387840233
 H         -0.0274391506       -3.6809824810       -1.5166973041
 C         -1.7743080914       -2.3602461376        0.1757799301
 H         -1.7667565772       -2.7437235941        1.2074470137
 C         -2.4080668841       -3.4005779744       -0.7253702722
 C         -2.2446574704       -4.8605735868       -0.4309838644
 C         -3.5672889876       -4.1938708767       -0.2043986682
 H         -4.3826080977       -4.4184667296       -0.8754741630
 H         -3.8794691108       -4.0033373599        0.8125580059
 H         -1.6618620537       -5.1346695137        0.4356010457
 H         -2.1553146749       -5.5471399902       -1.2593418382
 H         -2.4427892786       -3.0848197354       -1.7616489680
 O         -2.1586372400       -0.5801253722       -2.0526665218
