  62
        -98.93869620
 C         -1.0944971230       -1.3316703875        0.5906871955
 C         -1.6581141216       -0.7524561757       -0.5719455193
 C         -2.5579618173        0.3892535185       -0.3429094244
 C         -2.6992631447        0.8916651353        0.8956389856
 C         -3.5314511313        2.0817836334        1.2940818693
 C         -5.0568156565        1.9185107633        1.1443673568
 C         -5.6208002459        2.4384421382       -0.1837965621
 H         -6.5727114551        2.9364527712        0.0117041166
 H         -4.9464348396        3.1995776322       -0.5781687184
 C         -5.8850307553        1.3803694734       -1.2597485309
 H         -6.8125247895        0.8545735514       -1.0216677537
 H         -6.0378439036        1.9003722476       -2.2079501118
 C         -4.7949280253        0.3239052792       -1.4438384713
 H         -5.0118389640       -0.2326139040       -2.3576793104
 H         -4.8424101440       -0.3978965486       -0.6249136536
 C         -3.3606347897        0.8849239760       -1.5104328400
 H         -2.8589948713        0.5239275131       -2.4101972757
 H         -3.3822748800        1.9731788114       -1.5353334979
 H         -5.3272478437        0.8730706055        1.2909048684
 H         -5.5169403834        2.4869690277        1.9542576033
 H         -3.2958676560        2.2651887577        2.3445194577
 H         -3.2058204142        2.9523293266        0.7200196028
 O         -2.0359263398        0.3797023859        1.9694137602
 C         -1.2521824603       -0.7533311324        1.8508625970
 O         -0.7415322648       -1.1375496112        2.9244913035
 H          1.5878060295       -1.0783437707        1.6918456766
 C          1.9256475349       -1.3653633111        0.7037960751
 C          1.1115540883       -2.1821483442       -0.0729443137
 C          1.5453229243       -2.5374788998       -1.3422434827
 C          2.7631441681       -2.0797803429       -1.8184335650
 C          3.5697196714       -1.2660101717       -1.0440146991
 C          3.1432133054       -0.9085178588        0.2288248821
 N          3.9460067992       -0.0513818867        1.0168313113
 S          4.1515678610        1.4812187080        0.3667419836
 O          5.1123876755        1.4110595466       -0.7041621087
 O          4.4992972899        2.3365176869        1.4787025357
 C          2.5442127860        1.9046981443       -0.2788707267
 C          2.2844746002        1.7492914164       -1.6250807900
 C          1.0066582422        2.0082002611       -2.0933074033
 C          0.0167651239        2.4119807406       -1.2119971152
 C          0.2927877755        2.5609289043        0.1382326534
 C          1.5670168298        2.2994131414        0.6127732769
 H          1.8176054347        2.4071088233        1.6565580121
 H         -0.4808810474        2.8678423218        0.8242204553
 H         -0.9774573013        2.6071610232       -1.5796659293
 H          0.7825458045        1.8864638195       -3.1405197080
 H          3.0828990949        1.4360724045       -2.2773594424
 H          3.6045326642        0.0347039286        1.9644253936
 H          4.5137428205       -0.8902793870       -1.4043265767
 H          3.0870849203       -2.3599127013       -2.8090789068
 H          0.9239070863       -3.1593638949       -1.9645388291
 C         -0.2241381706       -2.5772650872        0.5075024899
 H         -0.0534498075       -2.8920980437        1.5466904681
 C         -0.9148741244       -3.7011072135       -0.2328594215
 C         -0.4246200223       -5.1059805066       -0.0583806337
 C         -1.7333129141       -4.6888870301        0.5407841908
 H         -2.6457206095       -5.0603699035        0.0989215066
 H         -1.7884584745       -4.5639803657        1.6127565780
 H          0.4101537452       -5.2641900538        0.6077942652
 H         -0.4381595143       -5.7675696002       -0.9109303421
 H         -1.2846153769       -3.4075585104       -1.2069184489
 O         -1.4385820059       -1.1598362790       -1.7400146216
