  62
        -98.94319029
 C         -0.8325080668       -1.6857041181       -0.8398662048
 C         -1.9812926005       -2.0536740077       -0.0924438020
 C         -3.1229092383       -1.1365299914       -0.1567481427
 C         -3.0393021653       -0.0240389365       -0.9083206743
 C         -4.1245564771        1.0017748811       -1.0940482552
 C         -4.1939943828        2.0499528642        0.0246324574
 C         -4.7413672523        1.5458980199        1.3602738543
 H         -4.9420657259        2.4241468928        1.9770114368
 H         -5.6935137219        1.0400204582        1.1973442753
 C         -3.7854449509        0.6164034246        2.1211876592
 H         -2.7768714092        0.7151126353        1.7125958296
 H         -3.7376806470        0.9193708024        3.1695158225
 C         -4.1853448812       -0.8587688745        2.0944217483
 H         -3.4205493386       -1.4322783921        2.6245695518
 H         -5.1326712178       -0.9927723677        2.6217011701
 C         -4.3241148151       -1.4468720270        0.6842903584
 H         -5.2300506670       -1.0731132181        0.2074053651
 H         -4.3967206512       -2.5338227574        0.7714646454
 H         -3.1935807677        2.4577441720        0.1765833508
 H         -4.8401092413        2.8577955100       -0.3262937766
 H         -5.0883267995        0.4997620793       -1.1862242945
 H         -3.9087269755        1.5140333798       -2.0338358598
 O         -1.9314282878        0.2848332224       -1.6296874382
 C         -0.7961271217       -0.5208982441       -1.6083097866
 O          0.1305939215       -0.0856427275       -2.3138098451
 O         -2.0497383108       -3.1112385761        0.5902742516
 C          0.3646787297       -2.6120825032       -0.7287065343
 C          1.2408616787       -2.2046906571        0.4288406129
 C          1.6764699115       -3.1432919133        1.3572622390
 C          2.4763515870       -2.7622985168        2.4198548714
 C          2.8669587507       -1.4438131479        2.5671151716
 C          2.4333402763       -0.4961966653        1.6464279194
 C          1.6162183417       -0.8786717691        0.5927920955
 H          1.2821532323       -0.1374718972       -0.1165773811
 N          2.7894208233        0.8528028494        1.7780765739
 S          3.1175021209        1.7597257260        0.4070291187
 O          3.7332770252        0.9541683838       -0.6204886352
 O          3.9167548172        2.8638311020        0.9006757340
 C          1.5461908154        2.4062541050       -0.1151515297
 C          1.2726176979        2.5175682941       -1.4625361102
 C          0.0788225910        3.1015186428       -1.8559348235
 C         -0.8119887886        3.5627614762       -0.9011665832
 C         -0.5225258307        3.4406060811        0.4502547177
 C          0.6689308326        2.8595775536        0.8506551411
 H          0.9280284299        2.7482406790        1.8907145306
 H         -1.2191795202        3.7985799700        1.1923862403
 H         -1.7386297516        4.0187174062       -1.2140224573
 H         -0.1525639782        3.1803311406       -2.9057896138
 H          1.9806735594        2.1283550991       -2.1760821626
 H          3.4362576028        1.0555823040        2.5264628580
 H          3.4979008314       -1.1450013232        3.3903347204
 H          2.8050084799       -3.4993002061        3.1367390173
 H          1.3718101754       -4.1738291718        1.2486199122
 H         -0.0624586815       -3.5981385612       -0.4832723336
 C          1.1441622380       -2.7737514793       -2.0248759416
 C          2.4480686264       -2.0964146132       -2.3069080307
 C          2.4152252608       -3.5710235376       -2.0460733156
 H          2.5897058490       -4.2467139421       -2.8698000424
 H          2.8016732073       -3.9177635295       -1.0994001463
 H          2.6178138662       -1.7508673974       -3.3156799688
 H          2.8710570270       -1.4400491648       -1.5615935404
 H          0.4802243984       -2.8960842071       -2.8754079945
