  62
        -98.94367273
 C         -1.2625832487       -0.8847048911        0.2272641519
 C         -1.7107997537        0.2614140129        0.9311778816
 C         -2.7489347374        1.0649007436        0.2739476896
 C         -3.1431549568        0.7346358626       -0.9689001611
 C         -4.2211742016        1.4359376379       -1.7423313535
 C         -5.5933786120        0.7944995213       -1.4922064865
 C         -5.9178047282        0.5865936433       -0.0128798598
 H         -6.9203626268        0.1572811852        0.0427686063
 H         -5.2282653453       -0.1520323994        0.4022186770
 C         -5.8605941066        1.8648669021        0.8351586726
 H         -5.9078090282        2.7412202036        0.1877303701
 H         -6.7377841281        1.8938546579        1.4848932387
 C         -4.6319681468        1.9705482885        1.7404931874
 H         -4.7974985548        2.7908552245        2.4438507661
 H         -4.5286219168        1.0532886167        2.3257141795
 C         -3.2999862548        2.2414220820        1.0291904715
 H         -2.5552019158        2.4809679056        1.7941222464
 H         -3.4016174689        3.1070659972        0.3707915023
 H         -6.3572369161        1.4262627069       -1.9491124338
 H         -5.6154962975       -0.1785639668       -1.9884029823
 H         -3.9825066311        1.3641204329       -2.8049726073
 H         -4.2400750917        2.4861526886       -1.4566429312
 O         -2.6232018767       -0.3149537745       -1.6528635682
 C         -1.6702755845       -1.1495501173       -1.0809985136
 O         -1.2824141369       -2.0598442703       -1.8364299048
 O         -1.2565980946        0.5989215830        2.0578391250
 C         -0.1992941251       -1.7422974132        0.8881703052
 C          0.9825413641       -1.9119830883       -0.0337389259
 C          1.6046621035       -3.1252305594       -0.2954783121
 C          2.7054740466       -3.1775932323       -1.1338733411
 C          3.2224279889       -2.0300109369       -1.7063131203
 C          2.6039445143       -0.8106164346       -1.4525551039
 C          1.4944999678       -0.7650548705       -0.6264177746
 H          0.9997577157        0.1804995396       -0.4649247562
 N          3.0875612682        0.3823909030       -2.0095547695
 S          2.9647670866        1.8052936325       -1.1435907447
 O          1.6143384363        2.3098044852       -1.1858454744
 O          3.9740735883        2.6638737870       -1.7269723067
 C          3.4327292692        1.3714375549        0.5231492133
 C          2.5074056371        1.3931486955        1.5461689945
 C          2.9031754080        1.0007382047        2.8155608473
 C          4.2099512550        0.5976717634        3.0399298595
 C          5.1315800317        0.5911101446        2.0035806017
 C          4.7408831553        0.9784928919        0.7328018888
 H          5.4304126610        0.9958749895       -0.0954298262
 H          6.1488875147        0.2823206967        2.1817851607
 H          4.5106983611        0.2894653390        4.0287835545
 H          2.1799215494        1.0068167223        3.6156294080
 H          1.4941718211        1.7057314654        1.3454161585
 H          3.9638528977        0.3050164475       -2.5035417207
 H          4.0835249245       -2.0745566555       -2.3551244206
 H          3.1730452212       -4.1284738087       -1.3394362442
 H          1.2175647382       -4.0330155399        0.1367817548
 H          0.1422985773       -1.1290853320        1.7404828080
 C         -0.7098750997       -3.0482362597        1.4788431123
 C         -2.1621075914       -3.2430216509        1.7946620116
 C         -1.5252612043       -4.0244733733        0.6868258539
 H         -1.3522990597       -5.0796753075        0.8407778964
 H         -1.7631925684       -3.7625818268       -0.3317831131
 H         -2.4255212492       -3.7571732177        2.7069376528
 H         -2.8432305042       -2.4471036880        1.5290161946
 H         -0.0089562582       -3.4706798795        2.1921377095
