  62
        -98.94473917
 C          1.8223167104        0.4973790194       -0.5601022801
 C          2.8546391305        1.2981973897       -0.0152773206
 C          4.2213997304        0.8086908795       -0.2252259904
 C          4.4244514704       -0.3234931009       -0.9234705497
 C          5.7609076403       -0.9339964312       -1.2484938194
 C          6.3330163203       -1.8176106305       -0.1315014288
 C          6.8474796304       -1.0634474498        1.0952962307
 H          7.4118190204       -1.7785198295        1.6972107011
 H          7.5427738304       -0.2860435000        0.7770578102
 C          5.7448659005       -0.4460623992        1.9667279304
 H          4.7856837204       -0.9069521593        1.7193994507
 H          5.9445138405       -0.6675127886        3.0176014505
 C          5.6128990305        1.0717689607        1.8404680894
 H          6.5222794606        1.5503765109        2.2103905891
 H          4.7812351906        1.3971958011        2.4705293193
 C          5.3468513105        1.5662677299        0.4124337591
 H          5.0535759805        2.6176731999        0.4624070385
 H          6.2516006105        1.4835043895       -0.1892278508
 H          7.1639004503       -2.3843385108       -0.5580700085
 H          5.5659920403       -2.5327419703        0.1748289216
 H          6.4741907604       -0.1461749614       -1.4924289499
 H          5.6110089103       -1.5542234317       -2.1348894690
 O          3.4049939203       -1.0551707412       -1.4476103892
 C          2.0815206203       -0.6806100510       -1.2604970194
 O          1.2525438903       -1.4631348513       -1.7628478989
 O          2.6430086905        2.3677898601        0.6162252187
 C          0.3799358504        0.9334777696       -0.3713883703
 C         -0.3818390296       -0.1305242399        0.3774559704
 C          0.1400194104       -0.5941243692        1.5839063906
 C         -0.4977974296       -1.5897661687        2.2956698013
 C         -1.6798793596       -2.1371091190        1.8271148816
 C         -2.2150645696       -1.6751631097        0.6317543514
 C         -1.5725653296       -0.6699966401       -0.0814536193
 H         -2.0027855196       -0.3445890207       -1.0135391195
 N         -3.4088223497       -2.2149805899        0.1342167517
 S         -4.5153253997       -1.2463961904       -0.6493865188
 O         -5.7731889697       -1.9483206902       -0.5032995084
 O         -4.0998737997       -0.9851876512       -2.0043059190
 C         -4.5609563996        0.2777428202        0.2791273003
 C         -4.7001118195        0.2190260610        1.6520356903
 C         -4.7388729594        1.4012875515        2.3727998996
 C         -4.6448558794        2.6172975311        1.7130823888
 C         -4.5156581095        2.6600578802        0.3339709788
 C         -4.4719247995        1.4797499698       -0.3911116705
 H         -4.3652729396        1.4668116991       -1.4635039105
 H         -4.4459595094        3.6055727599       -0.1798639718
 H         -4.6735490794        3.5365146014        2.2766478283
 H         -4.8412386394        1.3713409821        3.4455760596
 H         -4.7795358296       -0.7386422987        2.1396889209
 H         -3.8518775397       -2.9013479996        0.7261857522
 H         -2.1764718796       -2.9233643486        2.3750237521
 H         -0.0751032896       -1.9435264482        3.2239097215
 H          1.0644876505       -0.1671069890        1.9481874503
 H          0.4288141005        1.8317676500        0.2620298191
 C         -0.2320367096        1.3107868588       -1.7029343405
 C         -1.3263437395        2.3316657088       -1.7701933911
 C          0.0467893305        2.6722065885       -2.2638066714
 H          0.2063751404        2.7693824478       -3.3272660514
 H          0.6557364905        3.3366697988       -1.6683442818
 H         -2.1104397496        2.1910805784       -2.4987997910
 H         -1.6566500895        2.7709177694       -0.8412793714
 H         -0.2635547296        0.4805715884       -2.4003127800
