  62
        -98.94129404
 C         -2.6919355425       -0.2761332404       -0.2668429331
 C         -2.2738605028       -1.0651569457        0.8339336012
 C         -1.7389099654       -2.3973257505        0.4998332934
 C         -1.6641246471       -2.7849566317       -0.7846317854
 C         -1.1247023950       -4.1037386612       -1.2582861282
 C          0.3734205415       -4.0262975236       -1.5782696228
 C          1.2165542340       -3.3930842994       -0.4708420180
 H          2.2610198536       -3.4521547134       -0.7873378094
 H          0.9722404833       -2.3306188863       -0.3941637388
 C          1.0638763738       -4.0518107286        0.9068695726
 H          0.6479024896       -5.0545652906        0.7953867730
 H          2.0554005396       -4.1568677639        1.3523908680
 C          0.2156838616       -3.2545968563        1.9000335286
 H          0.5573441931       -2.2161401190        1.9182423210
 H          0.3791292534       -3.6712849085        2.8980832893
 C         -1.2971557770       -3.2648809249        1.6447081367
 H         -1.6408660222       -4.2926004450        1.5041902652
 H         -1.7861576435       -2.8559539504        2.5340393724
 H          0.7334107117       -5.0377098940       -1.7786437982
 H          0.5039806486       -3.4295928571       -2.4840148122
 H         -1.3037408691       -4.8557480188       -0.4918204189
 H         -1.6648587707       -4.3854045292       -2.1642692312
 O         -2.0688727711       -1.9989084053       -1.8159740165
 C         -2.5592653660       -0.7272146570       -1.5825043312
 O         -2.8706405809       -0.1016976575       -2.6179720535
 H         -0.6540810243        0.9608829991        0.7373673026
 C         -0.8093319110        1.8382140206        0.1274556257
 C         -2.0663628394        2.1103646523       -0.3905322285
 C         -2.2343818886        3.2539685623       -1.1628039382
 C         -1.1648912687        4.0952748620       -1.4148080914
 C          0.0968088913        3.7949365170       -0.9334557864
 C          0.2744300413        2.6522324569       -0.1625300518
 N          1.5384770449        2.2797461962        0.3274727334
 S          1.8854612099        0.6215203402        0.2300492810
 O          1.3237692653        0.0795397448       -0.9860150577
 O          1.4937481157       -0.0049556484        1.4658870554
 C          3.6654714792        0.6594845317        0.1250934460
 C          4.2656170798        0.6653453510       -1.1198535636
 C          5.6480028468        0.7301849803       -1.1974060272
 C          6.4021574619        0.7908012410       -0.0350041263
 C          5.7855282886        0.7825984777        1.2073482237
 C          4.4036954889        0.7169861604        1.2919764224
 H          3.8791917530        0.6983225808        2.2330752291
 H          6.3749613905        0.8261617020        2.1088588760
 H          7.4775861041        0.8415430070       -0.0982237744
 H          6.1298962249        0.7324900327       -2.1617806811
 H          3.6380891856        0.6059925066       -1.9949423964
 H          2.2880852050        2.8395440520       -0.0568216321
 H          0.9383700893        4.4324583790       -1.1584879955
 H         -1.3090690982        4.9803698850       -2.0156285318
 H         -3.2042233728        3.4670228687       -1.5880186604
 C         -3.2045918952        1.1512614277       -0.1424650914
 H         -3.9242484669        1.2817744074       -0.9680629544
 C         -3.9450713285        1.4360935722        1.1550705358
 C         -3.3435649223        2.2163796864        2.2808848035
 C         -4.4364278148        2.8216098545        1.4552792750
 H         -5.4151667315        2.9344060743        1.8961481117
 H         -4.1645750349        3.6093362868        0.7695366974
 H         -2.3382808979        2.5889627267        2.1561375129
 H         -3.5614033227        1.8912196092        3.2864354046
 H         -4.5984583766        0.6166209850        1.4343543044
 O         -2.3507743600       -0.7102355383        2.0382178612
