  62
        -98.94835340
 C          0.8469312608        1.2170910344        0.5330627743
 C          1.2406779833        0.5446921795       -0.6485141723
 C          2.1736169451       -0.5755881383       -0.4597688623
 C          2.4756635491       -0.9765613573        0.7878576950
 C          3.4626942924       -2.0559731075        1.1254512983
 C          4.8634592013       -1.4667943512        1.3470701797
 C          5.3131468014       -0.5097965416        0.2424338324
 H          4.6751408150        0.3769758776        0.2581802162
 H          6.3244340753       -0.1808548618        0.4916866367
 C          5.3059453042       -1.1155353970       -1.1683092248
 H          6.2322227938       -0.8332079473       -1.6730814330
 H          5.2921493370       -2.2039554356       -1.1029872914
 C          4.1525407821       -0.6455592088       -2.0573177905
 H          4.1052984436        0.4461864132       -2.0480888980
 H          4.3678373962       -0.9552210309       -3.0832211091
 C          2.7669501023       -1.1950166700       -1.6929073868
 H          2.0812477877       -0.9494219257       -2.5083410372
 H          2.8212190015       -2.2798811812       -1.5974792820
 H          5.5756730081       -2.2897399320        1.4311306821
 H          4.8634802929       -0.9200739928        2.2930592608
 H          3.1372233350       -2.5497905385        2.0428131328
 H          3.4922190349       -2.7849892784        0.3182073612
 O          1.9516348074       -0.3983874408        1.9007067828
 C          1.1756714236        0.7454834390        1.8031442041
 O          0.8410847165        1.2375431875        2.9010620935
 H         -1.7157609904        0.6070469214        1.0798443163
 C         -2.0714702311        1.1957005356        0.2458976119
 C         -1.2882378968        2.2363936494       -0.2389055089
 C         -1.7716989685        2.9990034818       -1.2939906964
 C         -3.0051799468        2.7149706024       -1.8538323314
 C         -3.7794814343        1.6753224125       -1.3740861283
 C         -3.3087577369        0.9135804124       -0.3095430881
 N         -4.0848569133       -0.1275195554        0.2186342584
 S         -3.3837244131       -1.4537697822        0.9341941951
 O         -4.4321561842       -2.4536718440        0.9213271058
 O         -2.8650552481       -1.1170674847        2.2367357588
 C         -2.0663568977       -1.9984341811       -0.1378389664
 C         -2.2560093390       -1.9964384901       -1.5052210248
 C         -1.2671898425       -2.5229215501       -2.3195644536
 C         -0.1203268951       -3.0584475359       -1.7563507714
 C          0.0576763360       -3.0498279480       -0.3822982467
 C         -0.9208187927       -2.5094002909        0.4357772015
 H         -0.8152696476       -2.4708746900        1.5092114235
 H          0.9495414213       -3.4635814814        0.0597179084
 H          0.6389135386       -3.4842175534       -2.3926342026
 H         -1.3966774235       -2.5194813276       -3.3897202038
 H         -3.1633060183       -1.5900043257       -1.9209722556
 H         -4.9204889353       -0.3588520761       -0.2971417802
 H         -4.7423614525        1.4562464752       -1.8092513077
 H         -3.3677207940        3.3113366014       -2.6770550136
 H         -1.1829619671        3.8138760674       -1.6808799637
 C          0.0332754622        2.4950255709        0.4405926003
 H         -0.1793875793        2.7931784347        1.4782117533
 C          0.8574119310        3.5809623906       -0.2207636606
 C          0.6157160230        5.0212966865        0.1130464167
 C          1.8538941560        4.3353867137        0.6051409451
 H          2.8022230295        4.5968091643        0.1599001598
 H          1.9197581085        4.0840379557        1.6542121770
 H          0.7172385183        5.7576556330       -0.6697810577
 H         -0.1581657064        5.2444548560        0.8319424492
 H          1.1405949071        3.3293483184       -1.2362911280
 O          0.8572045448        0.8761614815       -1.7993151919
