  62
        -98.93985294
 C         -1.1938150104       -0.9307980188       -0.5890693306
 C         -2.3825312805       -1.2598385988        0.1074181492
 C         -3.2566310802       -0.1503942388        0.5304192497
 C         -2.8691172499        1.1101186712        0.2627202703
 C         -3.6008452596        2.3906867213        0.5649019409
 C         -4.7712079695        2.6477102321       -0.3998330190
 C         -5.6230439098        1.4222758125       -0.7218681196
 H         -6.3278447597        1.7053459430       -1.5080916094
 H         -4.9820907200        0.6375845425       -1.1277958999
 C         -6.4296473100        0.8638567221        0.4478300902
 H         -7.1121145798        1.6349382221        0.8125379705
 H         -7.0350720402        0.0397914425        0.0617916198
 C         -5.6148466001        0.3411226213        1.6321110899
 H         -6.3000107403       -0.2159550588        2.2780981796
 H         -5.2255159699        1.1606908709        2.2302673203
 C         -4.4909547204       -0.6219082488        1.2611000295
 H         -4.9035534906       -1.4376479584        0.6564235591
 H         -4.1258216705       -1.0999894093        2.1785972393
 H         -4.3559333494        3.0184204124       -1.3399517488
 H         -5.4015469993        3.4316404020        0.0232068214
 H         -3.9385624696        2.3884982609        1.5973100609
 H         -2.8749035493        3.1998116412        0.4573265313
 O         -1.7126691898        1.3851190113       -0.4002788495
 C         -0.8450416101        0.3976460912       -0.8338230000
 O          0.1606707001        0.8443299412       -1.4191752697
 O         -2.7176339508       -2.4502837988        0.3592716786
 C         -0.3033906607       -2.0930972488       -0.9963514412
 C          0.7499385792       -2.3281156496        0.0599596187
 C          0.8410011989       -3.5436339300        0.7274359582
 C          1.7900833588       -3.7317060707        1.7167948681
 C          2.6498191591       -2.7076928611        2.0705713686
 C          2.5651287794       -1.4878056007        1.4082442392
 C          1.6358358795       -1.3138181900        0.3944670892
 H          1.5738120997       -0.3644422798       -0.1116891203
 N          3.4208712297       -0.4264215011        1.7337144097
 S          2.8645967201        1.1509603291        1.6341496505
 O          3.7774536103        1.8988639384        2.4780442608
 O          1.4683893601        1.2500947593        1.9957690805
 C          3.1453920603        1.6359539198       -0.0539343693
 C          4.1640162001        1.0399794099       -0.7702843096
 C          4.4039591602        1.4630891804       -2.0673150594
 C          3.6312543805        2.4729563609       -2.6196647489
 C          2.6172859607        3.0646176608       -1.8841220986
 C          2.3696974005        2.6440281103       -0.5874403888
 H          1.5764351006        3.0645053102        0.0100702813
 H          2.0095082509        3.8434347412       -2.3160705683
 H          3.8162409406        2.7982003413       -3.6315314587
 H          5.1892299801        1.0012176405       -2.6442257896
 H          4.7399462099        0.2521354795       -0.3138179799
 H          4.0085566696       -0.5728201217        2.5413631996
 H          3.3765704590       -2.8453397817        2.8566298785
 H          1.8509679085       -4.6797723610        2.2293405076
 H          0.1486531087       -4.3351527597        0.4812971178
 H         -0.9626730910       -2.9718983986       -1.0122314116
 C          0.3307411993       -1.9400304783       -2.3642613611
 C          0.7918347390       -3.1665336481       -3.0909844617
 C         -0.4114409608       -2.4158181676       -3.5754236313
 H         -0.3329257506       -1.8395362972       -4.4848015110
 H         -1.3850427109       -2.8586931274       -3.4228423815
 H          1.7006396391       -3.1089695281       -3.6695292216
 H          0.6335287788       -4.1211799283       -2.6126755221
 H          0.9224951896       -1.0399218985       -2.4651125306
