  62
        -98.94329896
 C         -1.8757778707       -0.2392844001       -0.2019534799
 C         -2.9571553688       -0.3939177061       -1.1010538455
 C         -4.2866410073       -0.5265492671       -0.4910109036
 C         -4.3982852638       -0.5131141720        0.8501633698
 C         -5.6949796508       -0.5950119087        1.6014909999
 C         -6.2705263169        0.8015794057        1.8749159280
 C         -6.3155690734        1.7038780622        0.6417895715
 H         -6.7666569241        2.6502676288        0.9478071430
 H         -5.2940112798        1.9228228254        0.3228719333
 C         -7.1013710683        1.1228380768       -0.5419904885
 H         -7.7430283773        1.9045437651       -0.9540555401
 H         -7.7522391656        0.3188709564       -0.1963498511
 C         -6.2307065523        0.6106325327       -1.6908316643
 H         -6.8775542001        0.4288954047       -2.5533406664
 H         -5.5120424167        1.3822324947       -1.9783662212
 C         -5.4602145117       -0.6868928748       -1.4160709217
 H         -6.1459830098       -1.4498536559       -1.0417613416
 H         -5.0457993325       -1.0346611329       -2.3670772309
 H         -7.2773151565        0.6860264116        2.2804718729
 H         -5.6523731022        1.2883102177        2.6326791075
 H         -5.5089689228       -1.0943816733        2.5538465696
 H         -6.4052621944       -1.1854979498        1.0258566426
 O         -3.3342793939       -0.3781726181        1.6822321727
 C         -2.0482494516       -0.2306666794        1.1825503512
 O         -1.1682996250       -0.1072035055        2.0542773213
 O         -2.8158093669       -0.4259982173       -2.3540647833
 C         -0.4747080776       -0.0858487905       -0.7609225450
 C          0.4386652493       -1.1830217423       -0.2711817316
 C         -0.0559433613       -2.4752715960       -0.1159327797
 C          0.7611634143       -3.4984590673        0.3228422140
 C          2.0979127662       -3.2625502792        0.5910432324
 C          2.6087759111       -1.9831025498        0.4180158060
 C          1.7797083320       -0.9520009495       -0.0030477935
 H          2.1972250448        0.0333702640       -0.1281873374
 N          3.9606977514       -1.7080691655        0.6758518210
 S          4.8241201094       -0.7638583579       -0.4043582663
 O          4.3323719103       -0.9138856571       -1.7539155629
 O          6.2074940907       -1.1334320742       -0.1888811266
 C          4.5931174045        0.9109943776        0.1523786039
 C          4.5198988285        1.9196081290       -0.7876609179
 C          4.3988908897        3.2318530151       -0.3570073659
 C          4.3529006725        3.5105299427        1.0001552321
 C          4.4277196366        2.4856438305        1.9314380736
 C          4.5544732315        1.1723837339        1.5077099749
 H          4.6134574055        0.3530728486        2.2044755650
 H          4.3878936300        2.7059942847        2.9860881086
 H          4.2560467487        4.5317285173        1.3337396037
 H          4.3394047537        4.0291427341       -1.0809411392
 H          4.5461822057        1.6572840260       -1.8332119338
 H          4.5021249578       -2.5041852664        0.9806381375
 H          2.7397415499       -4.0619331441        0.9294673394
 H          0.3568489139       -4.4917408107        0.4487161123
 H         -1.0967639758       -2.6680034151       -0.3378388874
 H         -0.5803163659       -0.2001067493       -1.8511543074
 C          0.0515605436        1.3047399440       -0.4674954057
 C          0.9683722967        1.9953766497       -1.4308296003
 C         -0.4512682247        2.4529157388       -1.2887667508
 H         -0.6440726733        3.3944241834       -0.7971078178
 H         -1.1459248246        2.2243550347       -2.0840478283
 H          1.7503337150        2.6240742118       -1.0322799126
 H          1.2457397530        1.4627410115       -2.3284225019
 H          0.2016605162        1.4738536691        0.5930332378
