  62
        -98.94701238
 C          1.1082498339        1.7168458432        0.4290258438
 C          1.8635281218        1.2293412646       -0.6682844018
 C          2.8597775391        0.1908333486       -0.3522738226
 C          3.0001667852       -0.2353995640        0.9147991806
 C          3.9503064247       -1.3049070147        1.3680402707
 C          3.2944581307       -2.6918388690        1.3507968512
 C          2.5953627748       -3.0354334066        0.0352438298
 H          1.7175009422       -2.3990287139       -0.0974737835
 H          2.2275485573       -4.0609395972        0.1191282353
 C          3.4824650898       -2.9126902783       -1.2110840097
 H          3.3081654102       -3.7823200024       -1.8482407764
 H          4.5356731925       -2.9230866197       -0.9254380439
 C          3.1926701461       -1.6752010257       -2.0632689455
 H          2.1154088052       -1.6045530897       -2.2369080303
 H          3.6743033765       -1.8096175793       -3.0361352148
 C          3.6850592507       -0.3395666892       -1.4901208093
 H          3.6136571541        0.4085468691       -2.2854329910
 H          4.7338738638       -0.4291959025       -1.1964537213
 H          2.5547007892       -2.7381997457        2.1533384031
 H          4.0655901707       -3.4370678636        1.5559642146
 H          4.8268016846       -1.2990582211        0.7228508122
 H          4.2606297543       -1.0742405247        2.3889234004
 O          2.2590670364        0.2530031276        1.9419536329
 C          1.2987601910        1.2277144785        1.7236948746
 O          0.6895049554        1.5780357745        2.7547336859
 H         -0.4775705168        0.5195147396       -1.1939862895
 C         -1.3758643258        1.0278206225       -0.8840111392
 C         -1.3014786725        2.1967030000       -0.1444359534
 C         -2.4872379838        2.8395988075        0.1991345972
 C         -3.7089576237        2.3213262965       -0.1871524995
 C         -3.7782076471        1.1337113084       -0.8947508493
 C         -2.6017003650        0.4818614548       -1.2399777711
 N         -2.6243952111       -0.7430289985       -1.9309055064
 S         -1.6834090199       -1.9938826306       -1.3321689151
 O         -0.2936479728       -1.7643051295       -1.6230215211
 O         -2.2653001273       -3.1886010520       -1.9049043632
 C         -1.9806977963       -1.9500162390        0.4246504235
 C         -1.0922249454       -1.2963503232        1.2525627034
 C         -1.3902758596       -1.1734812230        2.6002949164
 C         -2.5667382194       -1.7136950714        3.0957193926
 C         -3.4448621115       -2.3815540036        2.2546165946
 C         -3.1563167445       -2.4943873339        0.9046821946
 H         -3.8106329657       -3.0063385511        0.2176916252
 H         -4.3553736989       -2.8053851594        2.6464844198
 H         -2.7973361086       -1.6119010791        4.1443947879
 H         -0.7076728025       -0.6354827837        3.2404318168
 H         -0.1835605777       -0.8862782575        0.8401828921
 H         -3.5524980869       -1.0755455298       -2.1514710115
 H         -4.7315011085        0.7144894349       -1.1779448009
 H         -4.6192208858        2.8346873917        0.0816177773
 H         -2.4460454729        3.7486987429        0.7788013149
 C          0.0276237651        2.7739351682        0.2917081552
 H         -0.1134648347        3.1862780603        1.3012961778
 C          0.4258448260        3.9105701259       -0.6330252761
 C         -0.0346399240        5.3071234772       -0.3488408358
 C          1.4044056865        4.9380925807       -0.1521180588
 H          2.1409380051        5.3113932666       -0.8473953948
 H          1.7715194037        4.8391428624        0.8594745324
 H         -0.6310033156        5.4756896889        0.5347397582
 H         -0.2937865753        5.9407830903       -1.1829782596
 H          0.5015525888        3.6048421195       -1.6688038808
 O          1.7351082657        1.6303742850       -1.8547412430
