  62
        -98.93959812
 C         -1.0002704301       -1.4459498099        0.4784433402
 C         -1.9279088500       -1.1492921101       -0.5455085199
 C         -2.9944566601       -0.1855452200       -0.2108124602
 C         -3.0286290701        0.3537049902        1.0208403497
 C         -3.9833839802        1.3753504103        1.5865259295
 C         -5.4705794102        1.2223103703        1.2350204494
 C         -5.9777026501        2.2804409601        0.2532600192
 H         -7.0554431801        2.3950521601        0.3890738891
 H         -5.5138139401        3.2367329601        0.5044242390
 C         -5.7286952800        1.9732096198       -1.2222076008
 H         -6.0076139299        2.8599810997       -1.7961978909
 H         -6.3858433000        1.1603442298       -1.5387032507
 C         -4.2894296699        1.5939337298       -1.5758917606
 H         -3.5818353200        2.2266416298       -1.0391627806
 H         -4.1423747699        1.7896648896       -2.6404068706
 C         -3.9645493000        0.1140567098       -1.3203036303
 H         -4.8873576400       -0.4476385602       -1.1506479203
 H         -3.5037331099       -0.3200277004       -2.2131810702
 H         -5.6599373801        0.2224137402        0.8485630596
 H         -6.0398602802        1.3248090704        2.1604034493
 H         -3.8514277403        1.3135297105        2.6695709195
 H         -3.6294802702        2.3669003503        1.2898280493
 O         -2.1047270402        0.0440402504        1.9754746899
 C         -1.0625292002       -0.8288317697        1.7254947601
 O         -0.2694208103       -0.9727180095        2.6792655802
 H          0.6649248399        0.2021588300       -0.2666819600
 C          1.2196661000       -0.4328528402       -0.9392564398
 C          1.0582076200       -1.8091497301       -0.8710062596
 C          1.7600130001       -2.6016660303       -1.7714805194
 C          2.5867651501       -2.0199545405       -2.7171751494
 C          2.7477390601       -0.6472821205       -2.7767046197
 C          2.0521133501        0.1536317097       -1.8781930798
 N          2.1713565401        1.5505116497       -1.9041045601
 S          2.0725255300        2.4362019499       -0.4916401703
 O          0.7135709099        2.4816035800       -0.0110594204
 O          2.6595226300        3.7133911499       -0.8383756004
 C          3.1369014899        1.5852341301        0.6592709800
 C          4.4975485299        1.6445658201        0.4221906701
 C          5.3586091498        0.9641499202        1.2662538103
 C          4.8474042598        0.2316743004        2.3276068503
 C          3.4814176397        0.1854655405        2.5550295903
 C          2.6146052998        0.8686589403        1.7156720401
 H          1.5481886598        0.8408378203        1.8777269300
 H          3.0707615297       -0.3816751094        3.3754011103
 H          5.5157180397       -0.3038171795        2.9832371205
 H          6.4220816998        1.0035769202        1.0943534803
 H          4.8559233600        2.2345462299       -0.4056194400
 H          2.8704692001        1.9134322396       -2.5346026001
 H          3.3928947502       -0.1973463406       -3.5153157497
 H          3.1194178802       -2.6463089206       -3.4163862593
 H          1.6529060000       -3.6735010503       -1.7374604492
 C          0.1645793499       -2.3782473499        0.2069241305
 H          0.7492990898       -2.4091365998        1.1392889705
 C         -0.3285790201       -3.7768816100       -0.1046190893
 C          0.4682404999       -4.9746383699        0.3149690810
 C         -0.8093911502       -4.6398017098        1.0221411808
 H         -1.6731194402       -5.2667587298        0.8597020308
 H         -0.7513077802       -4.2280235096        2.0195482007
 H          1.3949888598       -4.8018957498        0.8410196910
 H          0.4802952799       -5.8378900700       -0.3333138889
 H         -0.8749921400       -3.8243691302       -1.0392284094
 O         -1.8677802500       -1.6562508703       -1.6969647298
