  62
        -98.94356134
 C          1.4443607923        1.3507553518        0.6239313950
 C          2.4342557561        1.2150370105       -0.3794288753
 C          3.4260211854        0.1494555991       -0.1586758737
 C          3.3135346164       -0.6545583087        0.9135224769
 C          4.2539711256       -1.7772826401        1.2462004858
 C          3.8111916551       -3.1103714233        0.6268713338
 C          3.4166247580       -3.0053961433       -0.8455511969
 H          3.1129477055       -4.0014523443       -1.1749327966
 H          2.5459882603       -2.3525095951       -0.9360225540
 C          4.5324618423       -2.4819431435       -1.7602340455
 H          5.4968239880       -2.5729950491       -1.2587512511
 H          4.5739750444       -3.1046531191       -2.6564290839
 C          4.3414461496       -1.0381569669       -2.2276668444
 H          3.3414830241       -0.9170241906       -2.6514554941
 H          5.0607859386       -0.8424264296       -3.0273984699
 C          4.5454555514        0.0399436337       -1.1559271173
 H          5.4986654367       -0.1228522608       -0.6484335678
 H          4.5888176563        1.0075037938       -1.6643684810
 H          4.6258486856       -3.8286009535        0.7363786877
 H          2.9557538099       -3.4896635753        1.1903258064
 H          5.2494882599       -1.5176475547        0.8901035967
 H          4.2863460264       -1.8842054098        2.3319017588
 O          2.3021567949       -0.5447558873        1.8126121376
 C          1.3561537164        0.4579108605        1.6967699735
 O          0.4980868963        0.4595282387        2.6015343273
 O          2.5186989548        1.9412473040       -1.4037875675
 C          0.3847856213        2.4431572493        0.6014724403
 C         -0.7580776631        2.0108936564       -0.2836524621
 C         -0.6533256626        1.9983803929       -1.6702618659
 C         -1.7059101525        1.5499522935       -2.4480181131
 C         -2.8784018144        1.1018554707       -1.8637028092
 C         -2.9863529248        1.1010832540       -0.4803558090
 C         -1.9329942623        1.5570689945        0.2990539827
 H         -2.0141506339        1.5350420627        1.3778408579
 N         -4.1640766777        0.5988758669        0.1218574857
 S         -4.3933877273       -1.0477301301       -0.1080236862
 O         -4.7919683827       -1.2782268784       -1.4726300147
 O         -5.3323028887       -1.4594741954        0.9101742573
 C         -2.7814284368       -1.7481245397        0.1920117889
 C         -1.9349192329       -1.9792025249       -0.8729236807
 C         -0.6465757047       -2.4188556886       -0.6170613769
 C         -0.2302686802       -2.6134788229        0.6902790416
 C         -1.0921909663       -2.3780047797        1.7493748793
 C         -2.3800516898       -1.9349720898        1.4995448171
 H         -3.0794104150       -1.7405344015        2.2971802513
 H         -0.7562784629       -2.5179123568        2.7640778944
 H          0.7767203719       -2.9442582245        0.8887928695
 H          0.0302187311       -2.6018031183       -1.4368160107
 H         -2.2964654065       -1.8144453784       -1.8746725781
 H         -4.2090781269        0.7977207621        1.1121838579
 H         -3.7013003308        0.7321680486       -2.4539322425
 H         -1.6118454188        1.5453787785       -3.5233858169
 H          0.2694359338        2.3165601016       -2.1297327412
 H          0.0022941210        2.5024665930        1.6294056555
 C          0.9246723974        3.8057097675        0.2174639463
 C          0.1147608649        5.0208393546        0.5518296816
 C          1.3862751019        4.7395144901        1.2936111347
 H          2.2466399198        5.3624752088        1.1004316325
 H          1.3153907927        4.4007785530        2.3172779899
 H          0.0991520197        5.8389149910       -0.1516700517
 H         -0.8195055316        4.8721542021        1.0724333372
 H          1.4795298671        3.8103098491       -0.7103859404
