  62
        -98.94391084
 C         -1.8333948421       -1.1190168397        0.1845660894
 C         -2.2056934181       -0.0925270686       -0.7162176553
 C         -3.6445322798        0.0150475942       -1.0009326156
 C         -4.4981825605       -0.8538677904       -0.4291687579
 C         -5.9904064868       -0.8197509715       -0.5858456458
 C         -6.6436287199        0.0296005461        0.5136738591
 C         -5.9975145708        1.4024769708        0.6998423479
 H         -6.5581513026        1.9229351699        1.4793387602
 H         -4.9783074938        1.2707822392        1.0704225617
 C         -5.9648039395        2.2656931520       -0.5690261209
 H         -6.6828718153        1.8840191512       -1.2957435494
 H         -6.2736472832        3.2807095048       -0.3103311088
 C         -4.5879461516        2.3739751775       -1.2273470996
 H         -3.8449631776        2.6679412519       -0.4812280825
 H         -4.6304450057        3.1696642470       -1.9760727093
 C         -4.0840623924        1.1086426184       -1.9331832398
 H         -3.1965600903        1.3829233567       -2.5114466890
 H         -4.8461182833        0.7445105239       -2.6253764713
 H         -6.5716019117       -0.5133510136        1.4588709229
 H         -7.7008866387        0.1529240017        0.2723335499
 H         -6.2387337114       -0.4179516838       -1.5661418369
 H         -6.3670676079       -1.8415036256       -0.5153710492
 O         -4.0980154824       -1.8438229276        0.4091063947
 C         -2.7628706392       -1.9936233302        0.7469492657
 O         -2.5341689210       -2.9241520042        1.5458284896
 O         -1.3832729479        0.6959682252       -1.2522775051
 C         -0.3740589896       -1.3049202409        0.5580800536
 C          0.2009500866       -0.0164839975        1.0932115982
 C         -0.5241989283        0.7068237056        2.0368346184
 C         -0.0351034833        1.8939070570        2.5451096330
 C          1.1911536278        2.3821210720        2.1297694821
 C          1.9338357871        1.6581973333        1.2047670940
 C          1.4418262120        0.4612680213        0.7006635686
 H          2.0261509674       -0.0768460493       -0.0263793307
 N          3.2026320223        2.1038615842        0.8194121356
 S          3.9264548038        1.6823642402       -0.6217390567
 O          5.0394759318        2.6024749070       -0.7335720860
 O          3.0035345714        1.6763761975       -1.7316721726
 C          4.5651340914        0.0434351792       -0.3397939221
 C          5.0356493639       -0.2965849037        0.9130228260
 C          5.5699191536       -1.5604832541        1.1066456654
 C          5.6339699853       -2.4556288352        0.0498577082
 C          5.1637048367       -2.0969832002       -1.2037811293
 C          4.6229287944       -0.8360875094       -1.4026320473
 H          4.2333731134       -0.5202156178       -2.3577607320
 H          5.2145565132       -2.7937283742       -2.0255501468
 H          6.0507419450       -3.4385175848        0.2028572641
 H          5.9351342359       -1.8432925923        2.0807954588
 H          4.9710560389        0.4213494639        1.7132770890
 H          3.4586809723        3.0283889280        1.1305653817
 H          1.5701236420        3.3152025389        2.5177139034
 H         -0.6151050809        2.4491716767        3.2670946464
 H         -1.4861874161        0.3291916644        2.3569141162
 H         -0.3613068517       -2.0485944288        1.3688464038
 C          0.3959264460       -1.8627090010       -0.6213710028
 C          1.5680479227       -2.7688000527       -0.3965996336
 C          0.2824064099       -3.3245551289       -0.9291492468
 H          0.2393710269       -3.6315717798       -1.9633305760
 H         -0.3331464820       -3.9200881979       -0.2705670518
 H          2.4119664311       -2.6944924298       -1.0655386956
 H          1.8345832165       -2.9970010782        0.6241730674
 H          0.4315991256       -1.1740845393       -1.4589322161
