  62
        -98.94489483
 C         -1.9219961060       -0.9646854700       -0.2860564529
 C         -3.0452306656       -1.2109755174        0.5441759702
 C         -4.3239399984       -0.6670450012        0.0764279439
 C         -4.3738735653        0.0175587083       -1.0806436689
 C         -5.6052391301        0.6205567998       -1.7002793976
 C         -5.9677857740        2.0059139456       -1.1478152275
 C         -6.5423200051        2.0111088820        0.2693887713
 H         -6.9530784988        3.0074702964        0.4443659318
 H         -7.3699912679        1.3034999875        0.3270920914
 C         -5.5180458924        1.6997038985        1.3697073096
 H         -4.5075105854        1.8256880836        0.9737005918
 H         -5.6317440789        2.4163180105        2.1862919893
 C         -5.6423179135        0.3010444395        1.9741069745
 H         -6.5999729673        0.2093520829        2.4912772957
 H         -4.8468880253        0.1759099574        2.7130980253
 C         -5.5262200286       -0.8397255546        0.9547390043
 H         -5.4061894499       -1.7776512645        1.5023064244
 H         -6.4322219345       -0.8998226064        0.3521580386
 H         -5.0787951829        2.6400931658       -1.1829160620
 H         -6.7117229122        2.4399300674       -1.8200064909
 H         -5.3993292278        0.7194337225       -2.7682739442
 H         -6.4501063056       -0.0564050227       -1.5704829619
 O         -3.2756177285        0.2283167471       -1.8521312132
 C         -2.0236494225       -0.2350242472       -1.4704955634
 O         -1.1141725368        0.0577727086       -2.2705949857
 H          1.2925976763       -0.0988720411       -1.2793077120
 C          1.1835613025        0.2810491986       -0.2758231899
 C          0.2798495512       -0.3136779771        0.5915656608
 C          0.1394669235        0.2153677939        1.8713090215
 C          0.8848065835        1.3091869626        2.2716713270
 C          1.7813534610        1.9043429549        1.4007447483
 C          1.9194522664        1.3897217562        0.1192079411
 N          2.8362946078        1.9912996153       -0.7723992893
 S          4.4495754878        1.8401838800       -0.3465376621
 O          4.7013989908        2.6410277840        0.8242878081
 O          5.2051092164        2.1796239354       -1.5307772661
 C          4.6407796661        0.1100658709        0.0406392739
 C          4.9366073168       -0.7682854331       -0.9825114466
 C          5.0009879387       -2.1238793121       -0.7046005641
 C          4.7551960271       -2.5763968958        0.5826841060
 C          4.4560332148       -1.6814599561        1.5981131593
 C          4.3966748188       -0.3237148247        1.3281881473
 H          4.1719350192        0.4034596033        2.0908922744
 H          4.2653084833       -2.0357944340        2.5983244919
 H          4.7969260108       -3.6330501852        0.7950250554
 H          5.2377151989       -2.8222142302       -1.4913947203
 H          5.1229120551       -0.3743082087       -1.9688907082
 H          2.7088312391        1.6825526074       -1.7262271552
 H          2.3797597953        2.7516818393        1.6945560055
 H          0.7665543371        1.7044353830        3.2692594909
 H         -0.5701087840       -0.2400183803        2.5479137483
 C         -0.5712644456       -1.4869009026        0.1753620690
 H         -0.7863843540       -2.0842602505        1.0714332480
 C          0.0936131681       -2.3748773436       -0.8559363516
 C          1.2985274281       -3.1728960861       -0.4582684250
 C         -0.0056397715       -3.8632073146       -0.7187701646
 H         -0.1070746148       -4.4559372996       -1.6155051614
 H         -0.5568896918       -4.2518417389        0.1247389681
 H          1.6345148908       -3.0861963041        0.5637483398
 H          2.0980694195       -3.2912056050       -1.1731432762
 H          0.0627161825       -1.9684258555       -1.8593331501
 O         -2.9808486315       -1.8597811103        1.6214790243
