  62
        -98.94038144
 C         -2.5379591299       -1.0733620915       -0.2521085107
 C         -2.3550913702        0.3191353186       -0.0735700711
 C         -3.4927329604        1.0385092486        0.5143399884
 C         -4.5986543504        0.3635381686        0.8767540983
 C         -5.8304471407        0.9530107386        1.5086513677
 C         -6.8228445805        1.5498837481        0.5012941172
 C         -6.3865937005        2.8692366880       -0.1369016831
 H         -7.2591652904        3.2816323477       -0.6473519035
 H         -6.1041089109        3.5739082283        0.6458592367
 C         -5.2407095202        2.7349796178       -1.1494659027
 H         -5.4785899900        3.3110843675       -2.0465026330
 H         -5.1452872500        1.6906506977       -1.4553624023
 C         -3.8848821104        3.2269691582       -0.6425573925
 H         -3.1427385102        3.0539102880       -1.4259367522
 H         -3.9315852007        4.3019534382       -0.4546628329
 C         -3.3958701207        2.5296406287        0.6339160579
 H         -2.3428743208        2.7819965889        0.7833085181
 H         -3.9636865010        2.8804405489        1.4955674576
 H         -7.7622993707        1.7207625781        1.0319238669
 H         -7.0126366902        0.8114365878       -0.2810243426
 H         -6.3269278608        0.1380651287        2.0397919278
 H         -5.5419773211        1.7148946589        2.2333565175
 O         -4.7192015702       -0.9819382315        0.7217176687
 C         -3.7044736399       -1.7276798115        0.1454127892
 O         -3.9540775197       -2.9464904516        0.0489098995
 H          1.0997915004       -0.9242881313       -1.3586197096
 C          0.9885857502       -1.3170422810       -0.3603507495
 C         -0.2214462999       -1.8592019210        0.0369783903
 C         -0.3396366902       -2.3452675706        1.3370423604
 C          0.7269362596       -2.2860007001        2.2120539907
 C          1.9359132896       -1.7421410201        1.8120492309
 C          2.0632925699       -1.2516096505        0.5206348108
 N          3.2916032200       -0.7209536405        0.0839267710
 S          4.1931382295        0.2329379300        1.1447502209
 O          4.8224800893       -0.6303513595        2.1133204014
 O          3.3839263492        1.3027252301        1.6850488003
 C          5.4242352897        0.8757478699        0.0286489811
 C          5.2791425897        2.1488415397       -0.4883752694
 C          6.2335454299        2.6246291095       -1.3740909193
 C          7.3077232501        1.8222360796       -1.7281997887
 C          7.4388692501        0.5457561898       -1.2013984182
 C          6.4897314600        0.0647504499       -0.3139386684
 H          6.5544196500       -0.9156190199        0.1280555520
 H          8.2765211303       -0.0738892902       -1.4780658278
 H          8.0485037602        2.1955147294       -2.4175761086
 H          6.1357224398        3.6173472594       -1.7832439796
 H          4.4308309295        2.7393697396       -0.1804277098
 H          3.2007456102       -0.2580018308       -0.8106618392
 H          2.7719610894       -1.6814339297        2.4894542311
 H          0.6195408493       -2.6636628798        3.2181558208
 H         -1.2867444102       -2.7628427606        1.6523729903
 C         -1.4330965096       -1.9196442815       -0.8616292200
 H         -1.8058835394       -2.9535317216       -0.8557602498
 C         -1.1689880292       -1.5045746419       -2.2931689301
 C         -0.5062778588       -2.4613965521       -3.2368912996
 C         -1.9624769288       -2.1433010624       -3.3915711301
 H         -2.2723328886       -1.5318839827       -4.2258176304
 H         -2.6856743788       -2.8948388324       -3.1098476901
 H          0.1830365614       -2.0709886623       -3.9701346495
 H         -0.2378199388       -3.4337085620       -2.8525764692
 H         -0.9459386294       -0.4486045919       -2.3912069404
 O         -1.3031123502        0.9347385887       -0.3891050710
