  62
        -98.93825670
 C         -0.5525099238       -1.9076426486       -0.0220027055
 C         -1.3442527254       -1.2381539528        0.9420228885
 C         -2.5159149643       -0.4877956155        0.4544062603
 C         -2.7650639373       -0.4626752350       -0.8668832457
 C         -3.8783649249        0.2370282040       -1.6047444672
 C         -4.1923643836        1.6765652440       -1.1684924643
 C         -5.5298234565        1.8136972737       -0.4380449608
 H         -5.8808452436        2.8424082213       -0.5454263549
 H         -6.2599751294        1.1676387383       -0.9299822087
 C         -5.4928830750        1.4907150925        1.0546967710
 H         -4.9652946456        2.2878800255        1.5826910898
 H         -6.5237360336        1.4870996632        1.4164580066
 C         -4.8401478400        0.1558910939        1.4188872011
 H         -5.1340016101       -0.6184973851        0.7111916286
 H         -5.2206315408       -0.1452209958        2.3971904059
 C         -3.3089777024        0.2273550959        1.5143572017
 H         -2.9866913055        1.2724661236        1.5493700486
 H         -2.9796094401       -0.2248716463        2.4552278549
 H         -3.3790060265        2.0638623216       -0.5559014318
 H         -4.2336894551        2.2933022901       -2.0681038373
 H         -3.5697760778        0.2275054016       -2.6529139708
 H         -4.7804659255       -0.3769492615       -1.5389011207
 O         -1.9924326517       -1.1413472582       -1.7603797584
 C         -0.8662276048       -1.8566463530       -1.3811554734
 O         -0.2668839895       -2.3850701783       -2.3371511560
 H          1.2409250891       -0.5469157628       -1.2177448518
 C          2.0286047485       -0.7257106863       -0.5030355723
 C          1.9171558915       -1.7502450189        0.4230239604
 C          2.9727032667       -1.9632560603        1.3048468451
 C          4.1037193007       -1.1700183274        1.2569169168
 C          4.1947268668       -0.1267154029        0.3518305653
 C          3.1457993077        0.0977580337       -0.5301361777
 N          3.1784098053        1.1661777630       -1.4456181116
 S          1.8491019287        2.1865925621       -1.4938866137
 O          0.7402211015        1.5504103427       -2.1570253483
 O          2.3484151611        3.3979983482       -2.1090745733
 C          1.4743835140        2.4787313408        0.2238736388
 C          2.2435127568        3.3898919834        0.9220626150
 C          2.0255818487        3.5475809843        2.2808386212
 C          1.0627233645        2.7801754044        2.9200460605
 C          0.2984802590        1.8705539361        2.2059952586
 C          0.5014252144        1.7222075634        0.8431558772
 H         -0.0810899353        1.0256521796        0.2602668615
 H         -0.4386878366        1.2520691871        2.6942712498
 H          0.9040761426        2.8899486952        3.9811652135
 H          2.6122510985        4.2589883708        2.8393791327
 H          2.9824408027        3.9643567666        0.3871727475
 H          4.0310190338        1.7078243845       -1.4152929206
 H          5.0669357980        0.5082555084        0.3268211557
 H          4.9158786739       -1.3509491897        1.9438368408
 H          2.8990781951       -2.7537525748        2.0353608187
 C          0.6818647271       -2.6227308780        0.4896642383
 H          0.4819446465       -2.8223789623        1.5523669014
 C          0.9467973258       -3.9461586380       -0.2037103821
 C          1.5388767800       -5.0910299141        0.5599186945
 C          0.1020842356       -5.1361038978        0.1367857851
 H         -0.1894213118       -5.8027970549       -0.6605275667
 H         -0.6568525075       -5.0059660961        0.8946806638
 H          2.2442247578       -5.7328293000        0.0550495998
 H          1.7446494502       -4.9487527215        1.6096326977
 H          1.2353766213       -3.8286661070       -1.2407774683
 O         -1.0808270831       -1.2626506830        2.1753058520
