  62
        -98.94390683
 C         -1.8329181335       -1.1119340328        0.1868170617
 C         -2.2089623060       -0.0870237079       -0.7142197245
 C         -3.6482716431        0.0152671418       -0.9988769109
 C         -4.4984598942       -0.8575295014       -0.4277920679
 C         -5.9907362394       -0.8304067276       -0.5852313980
 C         -6.6479972939        0.0153497636        0.5145486563
 C         -6.0088054779        1.3916160186        0.6999008143
 H         -6.5720189011        1.9098926552        1.4789816859
 H         -4.9890108736        1.2651665157        1.0706804512
 C         -5.9800820698        2.2541045017       -0.5696084725
 H         -6.2947457610        3.2676102446       -0.3120212997
 H         -6.6955066823        1.8679188743       -1.2965308698
 C         -4.6033559301        2.3694807758       -1.2270328659
 H         -4.6495909252        3.1644725983       -1.9762788430
 H         -3.8625078678        2.6678766607       -0.4805701095
 C         -4.0921559142        1.1065014041       -1.9318356487
 H         -4.8515565753        0.7382862495       -2.6248040428
 H         -3.2054023272        1.3850346886       -2.5092090497
 H         -6.5725681495       -0.5271174304        1.4597581170
 H         -7.7059983238        0.1331493576        0.2737372023
 H         -6.2406998479       -0.4293713601       -1.5654152581
 H         -6.3626218613       -1.8539365183       -0.5152073788
 O         -4.0946455003       -1.8457207592        0.4108054242
 C         -2.7590674682       -1.9903292470        0.7488232634
 O         -2.5267555701       -2.9204539099        1.5471314874
 H          2.0299986205       -0.0739449338       -0.0243152600
 C          1.4455040579        0.4683847664        0.6994210206
 C          0.2023388734       -0.0046198458        1.0905095333
 C         -0.5231435566        0.7239876050        2.0297377679
 C         -0.0317699804        1.9113671488        2.5351883679
 C          1.1970606601        2.3945704225        2.1215038915
 C          1.9399088765        1.6654196427        1.2007952796
 N          3.2112041715        2.1053748546        0.8169616884
 S          3.9346308139        1.6778848168       -0.6225735252
 O          5.0521178608        2.5924419412       -0.7354574107
 O          3.0123452339        1.6745030383       -1.7331138579
 C          4.5659468298        0.0365494796       -0.3380975929
 C          4.6327055788       -0.8395773893       -1.4032831561
 C          5.1682260259       -2.1025019051       -1.2032846658
 C          5.6245848217       -2.4666835312        0.0539424647
 C          5.5514889480       -1.5750580288        1.1130711075
 C          5.0224873327       -0.3090544069        0.9183393163
 H          4.9516540004        0.4060270421        1.7206114521
 H          5.9056825805       -1.8620803086        2.0900539036
 H          6.0371634879       -3.4511655781        0.2079806348
 H          5.2259468520       -2.7964564449       -2.0269428826
 H          4.2537593513       -0.5196012697       -2.3613110657
 H          3.4701082356        3.0298383785        1.1259420378
 H          1.5778476810        3.3277168232        2.5075119845
 H         -0.6119305977        2.4708265618        3.2537980922
 H         -1.4870073514        0.3502357531        2.3486969186
 C         -0.3728762883       -1.2943837872        0.5589587361
 H         -0.3579456128       -2.0363994637        1.3712350437
 C          0.3963692749       -1.8536837162       -0.6203800614
 C          1.5696377248       -2.7582638210       -0.3953714467
 C          0.2839361959       -3.3161150878       -0.9255490171
 H          0.2399790695       -3.6249773780       -1.9591450704
 H         -0.3303372551       -3.9110153858       -0.2652149739
 H          1.8375316370       -2.9844289937        0.6255167265
 H          2.4128204801       -2.6842829737       -1.0653083022
 H          0.4305988065       -1.1663747798       -1.4591094505
 O         -1.3894177380        0.7043839655       -1.2504040619
