  62
        -98.94746718
 C         -0.7441105703       -1.2830151093        0.0835922099
 C         -1.4327972891       -0.5173320913        1.0532004321
 C         -2.3856033589        0.4704701672        0.5301485421
 C         -2.4910319914        0.6412834510       -0.8001783625
 C         -3.4826795080        1.5454361532       -1.4717180033
 C         -4.7793552591        0.7898118861       -1.7975233854
 C         -5.3464657357       -0.0013291289       -0.6184790553
 H         -6.2768752261       -0.4641838766       -0.9547316310
 H         -4.6579360567       -0.8116393955       -0.3678453785
 C         -5.6188130291        0.8375789416        0.6381001445
 H         -6.5976709303        0.5627834210        1.0367528185
 H         -5.6621346394        1.8951251209        0.3757761709
 C         -4.6065682453        0.6365767359        1.7677931909
 H         -5.0090934413        1.1015088998        2.6718322522
 H         -4.4936904254       -0.4311128079        1.9728725034
 C         -3.2131782774        1.2321317671        1.5263917169
 H         -3.3103525465        2.2780508191        1.2311531052
 H         -2.6630857493        1.1869558385        2.4708606706
 H         -4.5781860009        0.0905313704       -2.6122331437
 H         -5.5219587770        1.5107998233       -2.1440565975
 H         -3.7007940227        2.3889863577       -0.8207997083
 H         -3.0438157845        1.9102605235       -2.4011606061
 O         -1.7412312112       -0.0470191313       -1.6976572504
 C         -0.8769778302       -1.0493884534       -1.2852652198
 O         -0.2956026272       -1.6414985689       -2.2135705635
 H          1.5496710194       -0.1258274564        0.4250067752
 C          2.1166602912       -0.9356537095       -0.0114361906
 C          1.5632313843       -2.2093288101       -0.0393566309
 C          2.3092315723       -3.2457638290       -0.5853143023
 C          3.5680620024       -3.0013720513       -1.1061198594
 C          4.1095713096       -1.7298138733       -1.0875196219
 C          3.3741157309       -0.6866036873       -0.5349894344
 N          3.8735214283        0.6217143098       -0.5348043601
 S          3.4255320553        1.7221595069        0.6313736211
 O          4.3834850151        2.7991081028        0.4910474762
 O          3.3540564249        1.1183286269        1.9420472306
 C          1.8248531863        2.3193669088        0.1321081451
 C          1.5452562612        2.4749792330       -1.2106631995
 C          0.3223938354        3.0110467697       -1.5802755703
 C         -0.5886833542        3.3927021850       -0.6079771428
 C         -0.2944412137        3.2265534838        0.7358900406
 C          0.9223956339        2.6823250551        1.1118592176
 H          1.1846528220        2.5223713724        2.1458807612
 H         -1.0044680001        3.5162394438        1.4934833987
 H         -1.5326615646        3.8239493813       -0.8999741509
 H          0.0854272658        3.1306987943       -2.6252891821
 H          2.2753414869        2.1701016200       -1.9420346035
 H          4.8255746283        0.7352532726       -0.8478682561
 H          5.0881620140       -1.5395833284       -1.5009792533
 H          4.1358189850       -3.8138163366       -1.5337462156
 H          1.9038214218       -4.2438429153       -0.6109918048
 C          0.1832812810       -2.3939945449        0.5395974588
 H          0.2550186519       -2.2894439692        1.6331547012
 C         -0.4313251074       -3.7414948006        0.2180671141
 C         -0.1608819924       -4.9293502484        1.0910261419
 C         -1.5088062072       -4.2753369326        1.1119367001
 H         -2.3431095937       -4.7936836169        0.6634780532
 H         -1.7764423814       -3.6797188676        1.9726780411
 H         -0.0721484453       -5.9007742276        0.6283649489
 H          0.4841458786       -4.7858960343        1.9447922567
 H         -0.5411463739       -3.9020967771       -0.8489547972
 O         -1.2697066705       -0.6633239938        2.2955777750
