  62
        -98.94479429
 C          1.9316881960       -0.4980347370        0.6166241603
 C          2.9886173133       -1.3015683613        0.1253198040
 C          4.3368638231       -0.7308814968        0.2388917150
 C          4.4912232724        0.4830348939        0.7987422394
 C          5.8002773678        1.2055535326        0.9284185120
 C          6.0619493415        2.1035039408       -0.2888975785
 C          5.8641518919        1.3979971554       -1.6305464844
 H          4.8086678309        1.1404245611       -1.7445900212
 H          6.1052832613        2.1184636940       -2.4151408170
 C          6.7174177021        0.1353606714       -1.8156739259
 H          7.1571018841        0.1534338457       -2.8151354900
 H          7.5403349204        0.1364392822       -1.1000368004
 C          5.9420978186       -1.1777636047       -1.6939481108
 H          6.5843053888       -1.9861317778       -2.0534216134
 H          5.0632093585       -1.1453842909       -2.3426743301
 C          5.4833122818       -1.5532778233       -0.2791983186
 H          5.1213598367       -2.5850958622       -0.3104461393
 H          6.3313760147       -1.5077778571        0.4069378173
 H          5.3772490522        2.9537133091       -0.2449721686
 H          7.0824244358        2.4852699833       -0.2230579631
 H          5.7627936809        1.8262335967        1.8252346375
 H          6.6022650030        0.4777464204        1.0355081119
 O          3.4536912208        1.2192819906        1.2724076183
 C          2.1478949293        0.7566562785        1.1860918858
 O          1.2959995213        1.5401364649        1.6459629572
 H         -1.7943903697        0.3848626945        1.1808505532
 C         -1.4580827196        0.5467238390        0.1712027092
 C         -0.3227029997       -0.0842212546       -0.3098979038
 C          0.0823574874        0.1766878304       -1.6177088244
 C         -0.6205612311        1.0583595658       -2.4138055649
 C         -1.7515316111        1.6915492969       -1.9271308324
 C         -2.1678109279        1.4358374526       -0.6269985584
 N         -3.3012378633        2.0797133217       -0.1053584633
 S         -4.4470626816        1.2254524102        0.7595605668
 O         -5.5966555234        2.1021220665        0.7986815602
 O         -3.9171454404        0.8108707485        2.0325946958
 C         -4.8004525408       -0.1921937113       -0.2628075858
 C         -5.6765925828       -0.0342402867       -1.3193141491
 C         -5.9100006185       -1.1073583421       -2.1634291084
 C         -5.2590823849       -2.3120283728       -1.9433188215
 C         -4.3826315340       -2.4539181272       -0.8788331614
 C         -4.1479818830       -1.3851400937       -0.0278810236
 H         -3.4771051944       -1.4591802890        0.8117071829
 H         -3.8785645776       -3.3917627857       -0.7076642503
 H         -5.4373534485       -3.1464821838       -2.6030651630
 H         -6.5947980535       -1.0017536686       -2.9893643038
 H         -6.1694512284        0.9157864226       -1.4483535258
 H         -3.7443637129        2.7240066424       -0.7438099228
 H         -2.2989160793        2.3880835347       -2.5438791325
 H         -0.2892858602        1.2550266590       -3.4222811729
 H          0.9675791575       -0.3168316757       -1.9952883462
 C          0.5103630564       -1.0260647655        0.5225493196
 H          0.5930476772       -1.9814768179       -0.0162576753
 C         -0.0499609285       -1.2950045098        1.9021797282
 C         -1.0969126490       -2.3495213069        2.0949395372
 C          0.2990195465       -2.5798863767        2.5893542203
 H          0.4824433577       -2.5616955716        3.6531953187
 H          0.9238980981       -3.2767754964        2.0500432259
 H         -1.8781100461       -2.1728268992        2.8198042628
 H         -1.4139147842       -2.9005669788        1.2221979220
 H         -0.1031858881       -0.4038487724        2.5179335009
 O          2.8113266294       -2.4395297123       -0.3865846657
