  62
        -98.94374870
 C         -1.9393694599       -1.3203092047        0.1477769538
 C         -1.9158765823       -0.1284111856       -0.6161843621
 C         -3.2265235648        0.4770184205       -0.8939435418
 C         -4.3412934814       -0.1198227236       -0.4342193615
 C         -5.7307348953        0.4258122698       -0.5884319917
 C         -6.1113354517        1.3158679911        0.6032924278
 C         -5.0563742235        2.3654127837        0.9541322237
 H         -5.4457591179        2.9506621139        1.7901155779
 H         -4.1544820779        1.8611992158        1.3091786155
 C         -4.6873178449        3.3068654138       -0.2008860405
 H         -5.4608233732        3.2712598678       -0.9689946743
 H         -4.6547174453        4.3303549544        0.1787105721
 C         -3.3260080498        3.0244887662       -0.8391203103
 H         -2.5602029344        2.9693072842       -0.0608889174
 H         -3.0730151371        3.8684193288       -1.4864986371
 C         -3.2419440171        1.7513450123       -1.6902548671
 H         -4.0540928599        1.7421073086       -2.4198639088
 H         -2.2923307978        1.7780863732       -2.2322621743
 H         -7.0574241357        1.8107791576        0.3766056039
 H         -6.2630113809        0.6781884189        1.4774520712
 H         -5.7925065321        0.9945970791       -1.5141215444
 H         -6.4269650613       -0.4129271989       -0.6406059930
 O         -4.3242080589       -1.2759694681        0.2778152852
 C         -3.1271146347       -1.8982481617        0.5943586340
 O         -3.2498226196       -2.9413863858        1.2687693430
 H          2.0968969375       -1.8583178255        0.3934293800
 C          1.6651630139       -1.1485284374        1.0825055076
 C          0.2889332887       -1.0984385387        1.2527843754
 C         -0.2291376470       -0.1817213930        2.1628359557
 C          0.5999216876        0.6812179101        2.8544753271
 C          1.9707129061        0.6390401509        2.6688593956
 C          2.5011835922       -0.2874306620        1.7832876920
 N          3.9022515344       -0.3305029939        1.6003669320
 S          4.5741017828        0.9425431764        0.7392571255
 O          5.9985443164        0.6992127875        0.7208790488
 O          4.1406106982        2.1811311243        1.3312438014
 C          3.9100850768        0.7542622867       -0.9049781809
 C          2.5863067798        1.0764505098       -1.1274604543
 C          2.0365433235        0.8271642658       -2.3750089827
 C          2.8189081643        0.2712439235       -3.3753202284
 C          4.1508338965       -0.0371138008       -3.1396109079
 C          4.7014175585        0.1953158510       -1.8899138202
 H          5.7280370264       -0.0390199901       -1.6582610786
 H          4.7562692012       -0.4662025612       -3.9219594801
 H          2.3854235016        0.0752974782       -4.3437547888
 H          0.9922310364        1.0432242726       -2.5333120560
 H          1.9934309419        1.5062339194       -0.3365146441
 H          4.2235293093       -1.1998290721        1.1957539742
 H          2.6313211108        1.3173772590        3.1831965429
 H          0.1754896232        1.3934983760        3.5462456085
 H         -1.2994562269       -0.1450859839        2.3156428904
 C         -0.6394313882       -2.0191865489        0.4972974540
 H         -0.9111824866       -2.8509913719        1.1644089417
 C         -0.0093916854       -2.5867536753       -0.7602693130
 C          0.7530064482       -3.8763783039       -0.7195319334
 C         -0.5980367645       -3.8241611783       -1.3656340296
 H         -0.6617809661       -3.8939574252       -2.4409643473
 H         -1.4314408016       -4.2781415814       -0.8488084250
 H          0.8366780211       -4.3816651265        0.2311313879
 H          1.6182006555       -3.9846555008       -1.3567148948
 H          0.3317569639       -1.8113493524       -1.4369959722
 O         -0.8604358620        0.4050329908       -1.0418070892
