  62
        -98.93137959
 C         -2.2811760407       -0.9388221988        0.5526266486
 C         -3.0226766689        0.1328639264        1.1066317693
 C         -4.3932972058        0.3462365377        0.6057106524
 C         -4.8689248847       -0.4871988431       -0.3380570061
 C         -6.2096154156       -0.4584506215       -1.0228033399
 C         -6.3098346036        0.6482642496       -2.0843975356
 C         -5.7556695867        2.0033160170       -1.6528352507
 H         -4.7060210007        1.8899567703       -1.3755120156
 H         -5.7915883728        2.6680197843       -2.5199847669
 C         -6.5117074015        2.6821548772       -0.5131194259
 H         -7.5554191192        2.8172741256       -0.8054780220
 H         -6.0734448903        3.6745642968       -0.3796680696
 C         -6.4740121290        1.9634781195        0.8375759572
 H         -7.1667139184        1.1264143591        0.8580705297
 H         -6.8234045899        2.6730699518        1.5933670170
 C         -5.0863605537        1.5072708517        1.2772649344
 H         -4.3922186997        2.3531399433        1.2127473929
 H         -5.1246244758        1.2496016447        2.3427645119
 H         -7.3569386485        0.7552740917       -2.3725797978
 H         -5.7486999592        0.3241573639       -2.9641419125
 H         -7.0028371514       -0.3624281264       -0.2873739965
 H         -6.3288621190       -1.4254012910       -1.5165263148
 O         -4.1202652453       -1.5052984891       -0.8456756501
 C         -2.8208382879       -1.7607037036       -0.4374546813
 O         -2.2907675643       -2.7198333393       -1.0249137866
 O         -2.5562120017        0.8930687886        2.0000873458
 C         -0.8801122923       -1.1453319579        1.0967346809
 C          0.1521408399       -0.4125310896        0.2811362659
 C          0.2150721269       -0.5375391644       -1.1033366588
 C          1.2042610180        0.1077534293       -1.8238906355
 C          2.1545105784        0.8819081129       -1.1793786198
 C          2.0911527176        1.0220803279        0.1991902173
 C          1.0922670274        0.3839548445        0.9186259181
 H          1.0518419790        0.5019044020        1.9935381790
 N          3.1036264069        1.7731847937        0.8578997554
 S          4.4116851580        0.7883430369        1.2728676245
 O          3.9588821216       -0.4459695814        1.8776304572
 O          5.2834476094        1.6067003412        2.0855119567
 C          5.1583248760        0.4583642188       -0.3044736888
 C          4.9184008401       -0.7516198113       -0.9249033482
 C          5.4691456612       -0.9812579540       -2.1758496621
 C          6.2433187118       -0.0018179880       -2.7794164709
 C          6.4759329569        1.2076281501       -2.1410662030
 C          5.9269900944        1.4446690554       -0.8910846121
 H          6.0813557699        2.3671323516       -0.3561221183
 H          7.0795969472        1.9651814563       -2.6143868378
 H          6.6685091519       -0.1831633599       -3.7539761944
 H          5.2881607663       -1.9200131029       -2.6742552030
 H          4.3089774905       -1.4835445427       -0.4190784918
 H          2.7665592528        2.2186428797        1.7017531847
 H          2.9308085190        1.3853909010       -1.7320141025
 H          1.2402465527       -0.0000227603       -2.8970092569
 H         -0.5157310409       -1.1547624156       -1.6044232053
 H         -0.8993338857       -0.6765700469        2.0942517278
 C         -0.5149398551       -2.6091675853        1.3032812991
 C          0.4237871539       -3.3700765939        0.4214107034
 C          0.8501058920       -2.9828303462        1.8038030931
 H          0.9300412605       -3.7525558106        2.5568404976
 H          1.5875953777       -2.1980322468        1.9017968140
 H          0.1868280332       -4.4027498035        0.2164539608
 H          0.8720236802       -2.8555709163       -0.4133302463
 H         -1.3495875036       -3.1732732300        1.7085506600
