  62
        -98.94208651
 C         -2.7271563017       -1.0556025167        0.3467031128
 C         -2.3565560139       -0.3449898737       -0.8238201227
 C         -2.8760945998        1.0259585213       -0.9268310004
 C         -3.7021771453        1.5077650680        0.0182763360
 C         -4.3053773592        2.8853934676        0.0517169876
 C         -3.3895807770        3.9383670471        0.6916163554
 C         -2.1796586752        4.3466338047       -0.1506610332
 H         -2.5141559939        4.6422901599       -1.1454984906
 H         -1.7407504435        5.2276142807        0.3217928416
 C         -1.0966504612        3.2645472262       -0.2755750948
 H         -0.1091038935        3.7003159244       -0.1014644598
 H         -1.2429387609        2.5073989747        0.4997728712
 C         -1.0467713038        2.5720168771       -1.6377593829
 H         -0.2493766185        1.8233854192       -1.6077539057
 H         -0.7845076379        3.3025745671       -2.4065588735
 C         -2.3569809396        1.8805592319       -2.0425386330
 H         -3.0987092731        2.6236223417       -2.3352174983
 H         -2.1511797395        1.2310631725       -2.8965306725
 H         -3.9935230489        4.8297109740        0.8756982069
 H         -3.0481430343        3.5623614221        1.6591163881
 H         -4.5718155450        3.1965107513       -0.9582096931
 H         -5.2170520223        2.8141007343        0.6487032243
 O         -4.0940704072        0.7672192071        1.0896162600
 C         -3.5634724395       -0.4951823181        1.3138901349
 O         -3.9083928891       -1.0075730007        2.3980544532
 H         -0.4614368834       -0.5758247133        1.6278338113
 C          0.0735437415       -1.2759960873        0.9950563670
 C         -0.6249426598       -2.3267349586        0.4111641699
 C          0.0712448611       -3.2088942953       -0.4026064968
 C          1.4239558525       -3.0262618087       -0.6358762613
 C          2.1082695122       -1.9663937327       -0.0706046272
 C          1.4212039832       -1.0790952992        0.7477113344
 N          2.1049635679        0.0149157671        1.3167451028
 S          2.8274856454        1.0861464015        0.2355302863
 O          2.8700871926        2.3544041719        0.9319847319
 O          2.1698934578        1.0773225195       -1.0488867188
 C          4.4840426368        0.4524414897        0.0803712413
 C          5.2549923399        0.3569157794        1.2223794338
 C          6.5449972415       -0.1382982371        1.1190665983
 C          7.0398328583       -0.5253234428       -0.1176468800
 C          6.2540921135       -0.4203277588       -1.2551608611
 C          4.9622111380        0.0734397894       -1.1583778303
 H          4.3115636337        0.1679386053       -2.0133181456
 H          6.6401937137       -0.7215650554       -2.2156934198
 H          8.0439624066       -0.9112158739       -0.1955660491
 H          7.1591561255       -0.2215509975        2.0011957810
 H          4.8328272849        0.6728088113        2.1616980493
 H          1.5395108727        0.5345210201        1.9735540236
 H          3.1571319221       -1.8111099262       -0.2651879029
 H          1.9503547594       -3.7147277997       -1.2792648722
 H         -0.4501136170       -4.0210949948       -0.8816563195
 C         -2.1098090569       -2.4052916352        0.6778598495
 H         -2.2519218438       -2.5217951431        1.7656371570
 C         -2.7875595882       -3.5995909926        0.0251540831
 C         -4.2271467886       -3.5366819240       -0.3877284279
 C         -3.1523987933       -3.6177983679       -1.4276079292
 H         -3.0384060110       -4.5439824080       -1.9718999337
 H         -2.9256330203       -2.7377965206       -2.0078896750
 H         -4.8473435662       -4.4036322632       -0.2158316329
 H         -4.7445789738       -2.5971907568       -0.2564626667
 H         -2.4554206434       -4.5386583838        0.4570326569
 O         -1.6236671536       -0.8107349722       -1.7320505755
