  62
        -98.93926956
 C          2.4789330251       -0.8383908487       -0.7744333197
 C          3.2135259914       -0.4573118580        0.3749186386
 C          3.9175503660        0.8310516848        0.2853938652
 C          3.8157044147        1.5645684536       -0.8376588935
 C          4.4406145243        2.9136535782       -1.0419802396
 C          3.4859002648        4.0400498883       -0.6221044159
 C          2.8614231771        3.8382069764        0.7586343236
 H          2.2314067373        4.7070655296        0.9608092186
 H          2.2048256024        2.9652397705        0.7306104707
 C          3.8780970630        3.6688663751        1.8962042505
 H          4.8550135178        4.0346434580        1.5779489586
 H          3.5620672072        4.2823723919        2.7424815739
 C          4.0180744680        2.2359512339        2.4134201579
 H          4.5862566315        2.2654120432        3.3470120123
 H          3.0297054388        1.8305672163        2.6454289840
 C          4.7321044619        1.2550214135        1.4750214728
 H          5.6873084848        1.6780778081        1.1574022225
 H          4.9314835472        0.3408141877        2.0416977618
 H          2.6797266667        4.1025938758       -1.3566264029
 H          4.0358951933        4.9826469525       -0.6400586978
 H          5.3622097274        2.9707395671       -0.4661477432
 H          4.6771661233        3.0258191618       -2.1014217301
 O          3.0794173948        1.1765839178       -1.9107239396
 C          2.3854151391       -0.0209246571       -1.9010645645
 O          1.7270754163       -0.2412508882       -2.9392190008
 H         -0.3533450194       -0.5202285807       -0.9469548255
 C         -0.4276668285       -1.1419636013       -0.0625186774
 C          0.5726495870       -2.0761496062        0.1830883217
 C          0.4702820590       -2.8774567638        1.3109868378
 C         -0.6014978996       -2.7305176944        2.1759286490
 C         -1.5889198055       -1.7940339542        1.9343886701
 C         -1.5016048966       -0.9934514214        0.8015615205
 N         -2.4999551488       -0.0302674526        0.5463262886
 S         -4.0993329745       -0.5737901102        0.6521281589
 O         -4.4767407611       -0.6094108143        2.0424823842
 O         -4.2483848081       -1.8156110932       -0.0740110623
 C         -4.9749267495        0.7383608672       -0.1756901019
 C         -5.2715518867        0.6077526883       -1.5191044855
 C         -5.9417191149        1.6374907164       -2.1605807462
 C         -6.2991251694        2.7749004217       -1.4521840105
 C         -5.9936327598        2.8915257246       -0.1042519174
 C         -5.3246902854        1.8652599321        0.5435775838
 H         -5.0760971966        1.9068443792        1.5911092239
 H         -6.2758853436        3.7763653488        0.4431052035
 H         -6.8220759570        3.5738042727       -1.9537657017
 H         -6.1827807241        1.5481033581       -3.2076221721
 H         -4.9842992456       -0.2985540274       -2.0282005537
 H         -2.3485871600        0.4323121560       -0.3405177322
 H         -2.4303816516       -1.6787598365        2.5981815209
 H         -0.6683369560       -3.3560005496        3.0534717017
 H          1.2317460108       -3.6102286968        1.5196971582
 C          1.7138816953       -2.1516239127       -0.8031995557
 H          1.2784886554       -2.2232488388       -1.8102584263
 C          2.6391251366       -3.3299496200       -0.5913788714
 C          2.2186610589       -4.6931074740       -1.0491454857
 C          3.2993213356       -3.9567513978       -1.7810064346
 H          4.3175800600       -4.3017533867       -1.6825741768
 H          3.0708004640       -3.5443073620       -2.7532117608
 H          2.4952733491       -5.5472194356       -0.4500194882
 H          1.2537215548       -4.7837535463       -1.5250612720
 H          3.2229385737       -3.2524723313        0.3174919783
 O          3.2879703311       -1.1518038233        1.4211202253
