  62
        -98.94020577
 C         -1.9455835872       -0.0402587547        0.4455000405
 C         -2.7985272932       -0.5163359580       -0.5810159131
 C         -4.0953224190        0.1675659660       -0.6970520497
 C         -4.3844716618        1.2103859871        0.1005344106
 C         -5.6494250733        2.0245353669        0.0751058229
 C         -6.8055235241        1.4072574670        0.8740247810
 C         -7.4527737401        0.1767527132        0.2371918762
 H         -7.7266655096        0.4044656165       -0.7934600098
 H         -8.3774502503       -0.0175770576        0.7843293132
 C         -6.5827042221       -1.0873646427        0.2737967160
 H         -7.1878043829       -1.9359996149        0.6008258529
 H         -5.7863704740       -0.9594136081        1.0106713955
 C         -5.9586049217       -1.4663599703       -1.0692755576
 H         -6.7472768746       -1.7238568573       -1.7796625918
 H         -5.3373229788       -2.3531309613       -0.9205614318
 C         -5.0813949991       -0.3710729661       -1.6895986202
 H         -5.7042289755        0.4324403718       -2.0819560243
 H         -4.5156298090       -0.8107860877       -2.5144793620
 H         -7.5720261584        2.1777159042        0.9852264046
 H         -6.4432706349        1.1531707176        1.8729436526
 H         -5.9629389953        2.1836420044       -0.9570951727
 H         -5.4039743041        2.9928796728        0.5167282954
 O         -3.5165701582        1.6711505542        1.0408330369
 C         -2.2961256169        1.0519888487        1.2445425595
 O         -1.6134677878        1.5581248772        2.1589313454
 O         -2.5160356549       -1.4569097745       -1.3656036018
 C         -0.5778057205       -0.6394960758        0.7356812460
 C          0.4461851538        0.0117585917       -0.1573048407
 C          0.3908841850       -0.1333527137       -1.5406606901
 C          1.3357602532        0.4733388528       -2.3471872247
 C          2.3544798694        1.2313834834       -1.7944397935
 C          2.4136169865        1.3852592532       -0.4167770829
 C          1.4642058077        0.7756893940        0.3928581532
 H          1.5081145417        0.9095864786        1.4654796849
 N          3.4761839196        2.1254858251        0.1484989054
 S          4.9925259584        1.4472321477       -0.0997401534
 O          5.8436077927        2.0006969421        0.9289140283
 O          5.3992709573        1.6852854343       -1.4607463526
 C          4.7234271984       -0.2953155113        0.1679925084
 C          4.4842331415       -1.1216571787       -0.9114611733
 C          4.1620705442       -2.4491308849       -0.6786363955
 C          4.0820140942       -2.9241646049        0.6211897746
 C          4.3332008445       -2.0829798728        1.6943832902
 C          4.6509290805       -0.7535487431        1.4685517290
 H          4.8541966921       -0.0681344689        2.2761281652
 H          4.2740554211       -2.4567763519        2.7042133076
 H          3.8171887284       -3.9541870342        0.7989209409
 H          3.9666568304       -3.1064567649       -1.5105733712
 H          4.5556474364       -0.7137642674       -1.9062109878
 H          3.3459582385        2.3110010640        1.1333520435
 H          3.1091412992        1.6988397835       -2.4063932546
 H          1.2814569888        0.3539119581       -3.4186585557
 H         -0.4024088651       -0.7274647152       -1.9683738947
 H         -0.3527205492       -0.3400652916        1.7703219039
 C         -0.5590604024       -2.1627210694        0.6723370540
 C          0.4780990376       -2.9335074622       -0.0862253321
 C          0.5098351538       -2.9147057268        1.4094797645
 H          0.2361413549       -3.8076611765        1.9506318483
 H          1.2858120301       -2.3305404479        1.8819527030
 H          0.1613192435       -3.8353382881       -0.5874067149
 H          1.2416953517       -2.3837241426       -0.6140127865
 H         -1.5528025519       -2.5939048514        0.6910617675
