  62
        -98.93843348
 C         -2.7389694327       -0.7859746857       -0.3332589088
 C         -3.1668615112        0.0748165638        0.7110275274
 C         -3.2924853568        1.4960340976        0.3768291039
 C         -3.0180113018        1.9110008820       -0.8726657127
 C         -3.0954197825        3.3268530928       -1.3747391365
 C         -1.8367179739        4.1542369718       -1.0789442882
 C         -1.6620574433        4.5716922841        0.3817994384
 H         -0.8777898235        5.3307637741        0.4055332326
 H         -2.5806522486        5.0380999848        0.7397912071
 C         -1.2627534210        3.4267348732        1.3236821227
 H         -0.8661658528        2.5909733885        0.7399196263
 H         -0.4509328348        3.7571675166        1.9764363958
 C         -2.3898432319        2.9225911769        2.2261565929
 H         -2.0056592665        2.0812476635        2.8091623211
 H         -2.6791059387        3.7125152835        2.9231675804
 C         -3.6430908438        2.4502948137        1.4776488711
 H         -4.1892355262        3.3057179583        1.0808436123
 H         -4.2842646340        1.9196455951        2.1857845899
 H         -0.9592468618        3.5854068795       -1.3974636492
 H         -1.8892187173        5.0584234707       -1.6899811436
 H         -3.9677914986        3.8219465138       -0.9473969492
 H         -3.2224738337        3.2672253390       -2.4577861640
 O         -2.6393454901        1.0543225807       -1.8552536988
 C         -2.4427375301       -0.3001007680       -1.6068266308
 O         -2.0221676434       -0.9276907659       -2.5978200581
 O         -3.4345151313       -0.3345646860        1.8724107714
 C         -2.5201032760       -2.2414146907        0.0460146349
 C         -1.1210235030       -2.3882202167        0.5897698808
 C         -0.8723100401       -2.9686012530        1.8269916794
 C          0.4128335113       -3.0108960145        2.3417289526
 C          1.4725738451       -2.4676395212        1.6376039171
 C          1.2336063117       -1.8960575987        0.3963531192
 C         -0.0493767851       -1.8671059520       -0.1229878097
 H         -0.2238160120       -1.4075186119       -1.0862920932
 N          2.3094516757       -1.2872125142       -0.3065517624
 S          2.5758613778        0.3097668671        0.2001462502
 O          2.3575899356        0.3835340183        1.6222618317
 O          1.8031265839        1.2162656578       -0.6248376194
 C          4.3119704376        0.4927159406       -0.1570048827
 C          4.7113971201        1.0939367267       -1.3341428117
 C          6.0660443464        1.1836861201       -1.6147569151
 C          6.9918836965        0.6690332312       -0.7202065458
 C          6.5747784032        0.0672224426        0.4578644853
 C          5.2223346969       -0.0248130383        0.7438663253
 H          4.8508065174       -0.4755504347        1.6491565607
 H          7.2976516135       -0.3303192380        1.1518785875
 H          8.0450781840        0.7391016044       -0.9418660424
 H          6.3925351651        1.6528117589       -2.5289875457
 H          3.9572045224        1.4867909848       -1.9970841776
 H          2.1132243834       -1.2454151292       -1.2993528762
 H          2.4719073635       -2.4638282169        2.0400851023
 H          0.5869168506       -3.4572500343        3.3088771283
 H         -1.6992083275       -3.3620509225        2.4000058990
 H         -3.2182362279       -2.4267463047        0.8777267421
 C         -2.8505680605       -3.2308685232       -1.0601031838
 C         -1.8162890323       -4.0404745963       -1.7776363686
 C         -2.7344349656       -4.7036077224       -0.7981736590
 H         -3.5073562540       -5.3580544753       -1.1709196567
 H         -2.3153372244       -5.0055639288        0.1498373231
 H         -1.9627133519       -4.2128692051       -2.8328475615
 H         -0.7820410965       -3.9108319554       -1.4995150088
 H         -3.6987684273       -2.9055722212       -1.6531660016
