  62
        -98.93746879
 C         -2.1914853859       -0.8263452945       -0.1094905482
 C         -2.9221778261       -0.1369781487        0.8849013083
 C         -3.7016011437        1.0287810410        0.4356912464
 C         -3.6582623809        1.3902556958       -0.8584031179
 C         -4.3305559697        2.5625131687       -1.5288113856
 C         -5.7833405785        2.8664488116       -1.1385900173
 C         -6.6327793334        1.6357849569       -0.7893015155
 H         -7.5601856720        1.6700992836       -1.3638820236
 H         -6.1059900507        0.7237588418       -1.0750830766
 C         -7.0026460341        1.5674411572        0.6943199117
 H         -7.2932140279        2.5655336148        1.0294373272
 H         -7.8734980748        0.9177699238        0.8098491165
 C         -5.9113300445        1.0281360809        1.6181686312
 H         -6.2571022246        1.1394305630        2.6487613255
 H         -5.7717177990       -0.0418739254        1.4415058961
 C         -4.5370553698        1.7045714843        1.4848821652
 H         -4.0028325752        1.5688142347        2.4295496940
 H         -4.6387420006        2.7704645950        1.2953227899
 H         -5.7982343766        3.5580336945       -0.2973421416
 H         -6.2325745894        3.3910864957       -1.9834884454
 H         -4.2769093838        2.3449687187       -2.5981946973
 H         -3.7190179533        3.4520391169       -1.3509464844
 O         -2.9170502027        0.7112826296       -1.7794044941
 C         -2.1726602918       -0.4073305280       -1.4390003070
 O         -1.5529295907       -0.9209240778       -2.3882959553
 O         -2.9121108156       -0.4701159609        2.1016365442
 C         -1.3748537425       -2.0431407313        0.2828936503
 C          0.0861334842       -1.8181447751       -0.0223820104
 C          0.8939321379       -2.7682249016       -0.6326792543
 C          2.2311191421       -2.5014930145       -0.8723899899
 C          2.7913472495       -1.2909602220       -0.5100511850
 C          1.9967669109       -0.3384017948        0.1150719247
 C          0.6597387660       -0.6109608237        0.3588124157
 H          0.0423089233        0.1325218763        0.8491914619
 N          2.5533006946        0.9002710757        0.4796685021
 S          3.9787357838        0.9027123006        1.3676362021
 O          4.0975593607       -0.2858922706        2.1800408528
 O          3.9813170874        2.1661139403        2.0725837417
 C          5.2565631645        0.9272439679        0.1283815607
 C          6.2288694539       -0.0536066514        0.1209303053
 C          7.2177674787       -0.0090578305       -0.8495779124
 C          7.2172165750        1.0104254573       -1.7891753069
 C          6.2350853934        1.9896066592       -1.7660300088
 C          5.2442900365        1.9514154466       -0.7980950886
 H          4.4656138011        2.6939102370       -0.7434812258
 H          6.2377234134        2.7808432986       -2.4983488538
 H          7.9867137825        1.0425971512       -2.5442310507
 H          7.9823557840       -0.7689082980       -0.8691978313
 H          6.1857919255       -0.8295714446        0.8685089926
 H          1.8852382090        1.5423562638        0.8807467403
 H          3.8298379213       -1.0775585827       -0.7029905898
 H          2.8449861282       -3.2470162656       -1.3541979413
 H          0.4762385006       -3.7172294573       -0.9256574601
 H         -1.4820898085       -2.1276258121        1.3753089712
 C         -1.9451621914       -3.2905329681       -0.3591655000
 C         -1.8079966660       -4.6208993721        0.3171590029
 C         -3.1420470744       -3.9408425504        0.2652462389
 H         -3.9056935157       -4.3461919047       -0.3814555879
 H         -3.5282244893       -3.4997836411        1.1728725115
 H         -1.6579091884       -5.4975724649       -0.2946512626
 H         -1.2908805543       -4.6493370371        1.2644358983
 H         -1.9018930609       -3.2565215942       -1.4420082562
