  62
        -98.93908972
 C          2.3578767910        0.6434939965        0.1316201366
 C          2.6463760507       -0.7475351419        0.1334204567
 C          3.9245032043       -1.1516587869       -0.4601975726
 C          4.7366910767       -0.2178024124       -0.9870513348
 C          6.0612826560       -0.4670022784       -1.6557450792
 C          7.2406751464       -0.5868745613       -0.6809288616
 C          7.2803988268       -1.8791941388        0.1354858431
 H          7.1987312477       -2.7345973798       -0.5357678396
 H          8.2628105262       -1.9289699640        0.6091758485
 C          6.2028872521       -1.9729623814        1.2248681815
 H          6.6558027982       -2.3183740026        2.1569568748
 H          5.7919662388       -0.9793954364        1.4183097459
 C          5.0534673423       -2.9273002607        0.9002229938
 H          5.4325089645       -3.9496600609        0.8352820532
 H          4.3322884939       -2.8872767973        1.7207519152
 C          4.3074815523       -2.5996217920       -0.3999937109
 H          4.9182776790       -2.8672266002       -1.2620646705
 H          3.3869473910       -3.1880612781       -0.4255821048
 H          8.1579966150       -0.5269929547       -1.2710501248
 H          7.2233890619        0.2709073477       -0.0048032541
 H          5.9987994511       -1.3684650475       -2.2658886376
 H          6.2425167512        0.3866617962       -2.3121928873
 O          4.4202298310        1.1018565266       -0.9864000545
 C          3.2425281735        1.5708407591       -0.4202401564
 O          3.1279698001        2.8106080811       -0.4867010692
 O          1.8679536147       -1.6145575570        0.6154115387
 C          1.0426373625        1.0622547306        0.7641316665
 C         -0.0359304679        1.3096397774       -0.2641730368
 C          0.0797166980        2.3165249663       -1.2173105222
 C         -0.9433209280        2.5449802932       -2.1190190560
 C         -2.1052339487        1.7946056381       -2.0754847558
 C         -2.2275972338        0.7826219725       -1.1309186841
 C         -1.1904969099        0.5412154911       -0.2406333238
 H         -1.2963205745       -0.2564406485        0.4805259452
 N         -3.3857441313       -0.0082364180       -1.0694024169
 S         -3.9248989344       -0.5103882353        0.4503934675
 O         -3.8016927899        0.5723448441        1.4000149464
 O         -3.2620213962       -1.7423491626        0.7973937596
 C         -5.6431354616       -0.8297116744        0.0962574327
 C         -6.5783987575        0.1573675432        0.3442719123
 C         -7.9079317768       -0.0870103608        0.0381027842
 C         -8.2771177275       -1.3061290175       -0.5102948852
 C         -7.3271096980       -2.2872812212       -0.7528821074
 C         -5.9960708637       -2.0499078594       -0.4485563480
 H         -5.2241866467       -2.7843139876       -0.6103725212
 H         -7.6182525935       -3.2349908555       -1.1763175368
 H         -9.3123577130       -1.4941117947       -0.7473025166
 H         -8.6491497257        0.6722958901        0.2286165159
 H         -6.2464245256        1.0857110979        0.7807185840
 H         -4.1401128807        0.3522296050       -1.6375368608
 H         -2.9085951767        1.9857828873       -2.7707767143
 H         -0.8407207522        3.3276750713       -2.8555858356
 H          0.9789687335        2.9121547078       -1.2448586060
 H          0.7254575706        0.1970346170        1.3634554580
 C          1.1582298178        2.2623030883        1.6858639891
 C          0.0426302500        2.5366369113        2.6480514364
 C          1.3662492663        2.0474983640        3.1531988057
 H          2.0005381329        2.7370291730        3.6898691423
 H          1.4317253883        1.0281604625        3.5057243438
 H         -0.2317144386        3.5630786637        2.8375537087
 H         -0.7944102836        1.8528411093        2.6527356985
 H          1.6504893967        3.1105897476        1.2286324226
