  62
        -98.93439171
 C         -2.7329144500       -0.3320787909       -0.0654407302
 C         -2.1356933506        0.5617936193       -0.9830294403
 C         -2.0438729510        1.9804400993       -0.5793073102
 C         -2.5108895008        2.3505107091        0.6262680299
 C         -2.4863892111        3.7093507191        1.2758746800
 C         -1.0962297811        4.0938807995        1.8002621496
 C          0.0435890388        3.8832767800        0.8077327093
 H          0.9735443288        4.1611132803        1.3119323891
 H          0.1248494091        2.8212004700        0.5657492492
 C         -0.0569743219        4.7056468400       -0.4757699406
 H         -0.1482513522        5.7629112400       -0.2169666705
 H          0.8858637380        4.5753779004       -1.0125685709
 C         -1.1957760820        4.3317830097       -1.4299645403
 H         -0.9527743024        4.7564095599       -2.4082506503
 H         -2.1375421621        4.7807809393       -1.1251813900
 C         -1.3787150315        2.8320415297       -1.6334652704
 H         -1.9588929817        2.6674472695       -2.5492284202
 H         -0.4018335314        2.3716483900       -1.8224479407
 H         -1.1252259913        5.1414979795        2.1070283497
 H         -0.8845157906        3.4873790995        2.6847573595
 H         -2.8581024315        4.4644193890        0.5896612101
 H         -3.1749836308        3.6595797988        2.1226312702
 O         -3.0870878202        1.4551023588        1.4801809700
 C         -3.1939920898        0.1162262888        1.1755422499
 O         -3.7245179393       -0.5733696714        2.0709510500
 H         -0.3592476100       -1.2904795800       -1.2055398909
 C         -0.3354867295       -2.0259379501       -0.4149661110
 C         -1.5260107492       -2.4623157405        0.1485060193
 C         -1.4676028986       -3.4062106906        1.1664032492
 C         -0.2485287883       -3.8794037702        1.6223223789
 C          0.9368620214       -3.4018532997        1.0912218286
 C          0.8842028508       -2.4681095997        0.0671962487
 N          2.0953189005       -1.8946809392       -0.4194066416
 S          2.5055130803       -0.5756010091        0.5703757084
 O          2.6241106608       -1.0606303492        1.9223723783
 O          1.5815689198        0.5186504506        0.3601800187
 C          4.1179517899       -0.1487981185       -0.0598709720
 C          4.2633495793        0.9529195416       -0.8797767620
 C          5.5199036791        1.2534218521       -1.3823551723
 C          6.6018278995        0.4482621024       -1.0607559427
 C          6.4392195601       -0.6561410877       -0.2372123327
 C          5.1861770803       -0.9609412382        0.2692440976
 H          5.0120641308       -1.8025271183        0.9186175876
 H          7.2835443504       -1.2785726874        0.0114410970
 H          7.5783234993        0.6846243328       -1.4529735129
 H          5.6484183786        2.1125101121       -2.0210586323
 H          3.3943144991        1.5532745813       -1.0974228317
 H          1.9531037401       -1.5191220192       -1.3505487516
 H          1.8930463116       -3.7198155594        1.4725088783
 H         -0.2216147778       -4.6081322902        2.4182323988
 H         -2.3856149983       -3.7451281409        1.6242854195
 C         -2.8317314195       -1.8367162910       -0.2820907803
 H         -3.6145028392       -2.1880985813        0.4038555499
 C         -3.2104577698       -2.2411506510       -1.6919889602
 C         -3.8173635494       -3.5919427612       -1.9186107701
 C         -4.6586196898       -2.3592818215       -2.0558680898
 H         -4.9673115102       -2.0486585715       -3.0425340997
 H         -5.3856379297       -2.1487688918       -1.2848050096
 H         -3.5477786794       -4.1326382010       -2.8126480302
 H         -3.9773101989       -4.2200227813       -1.0553497801
 H         -2.5386922801       -1.8546601707       -2.4464047304
 O         -1.6750896707        0.2229396696       -2.1085011505
