  62
        -98.94294686
 C         -1.8812874295       -1.3754607415       -0.2233103733
 C         -2.1757630063       -0.2261458739       -0.9971658644
 C         -3.5675625037        0.2497022822       -0.9332922796
 C         -4.4638481808       -0.4107411255       -0.1794262236
 C         -5.8887370166        0.0108317669        0.0298218255
 C         -6.0207917030        0.9251196204        1.2561710263
 C         -5.0107054073        2.0724614061        1.2856180569
 H         -5.2178793906        2.6650574442        2.1793352683
 H         -4.0047393565        1.6614133404        1.3996907555
 C         -5.0469763350        2.9829470011        0.0502280744
 H         -5.9887805225        2.8473423748       -0.4827579156
 H         -5.0075785872        4.0232730829        0.3800429412
 C         -3.8831530084        2.7803661260       -0.9219488524
 H         -2.9356810562        2.8267027380       -0.3781144239
 H         -3.8882864721        3.6078079544       -1.6368022035
 C         -3.9098664260        1.4770005088       -1.7301019446
 H         -4.8813362918        1.3642338139       -2.2156830035
 H         -3.1432960121        1.5539588157       -2.5070222477
 H         -7.0340062237        1.3304216691        1.2770690886
 H         -5.8771179211        0.3211211916        2.1549670257
 H         -6.2447573781        0.5254591765       -0.8604324206
 H         -6.4930522247       -0.8838801578        0.1880325646
 O         -4.1512159738       -1.5252183128        0.5289149215
 C         -2.8599080050       -2.0223917753        0.5373069018
 O         -2.7102520774       -3.0394415418        1.2437812222
 O         -1.3405242258        0.3844939251       -1.7141060157
 C         -0.4814827966       -1.9684117153       -0.1372231783
 C          0.3414491783       -1.1302735228        0.8120439251
 C          0.4618558322       -1.5262044989        2.1413308952
 C          1.1666724712       -0.7558323053        3.0469093846
 C          1.7791056591        0.4162118323        2.6403290109
 C          1.6601294889        0.8252228576        1.3170281507
 C          0.9418122162        0.0553157920        0.4113611030
 H          0.8276497784        0.4114676962       -0.5997143441
 N          2.2601036612        2.0221022424        0.8879987921
 S          3.2149800848        2.0271045658       -0.4864440353
 O          3.9660072091        3.2607906161       -0.3951007043
 O          2.4119281414        1.8541767598       -1.6675342164
 C          4.3083313507        0.6355785331       -0.2659885668
 C          5.4869722091        0.8263593502        0.4288382771
 C          6.3120618183       -0.2616828884        0.6617441784
 C          5.9396151783       -1.5184091092        0.2088369547
 C          4.7520792932       -1.6934004464       -0.4845362815
 C          3.9257622002       -0.6075382948       -0.7281662003
 H          2.9982903106       -0.7055816543       -1.2675980808
 H          4.4615833245       -2.6705334673       -0.8360341291
 H          6.5790883097       -2.3668819686        0.3945078189
 H          7.2386396943       -0.1279032527        1.1963395859
 H          5.7397837277        1.8218439143        0.7563423921
 H          2.7200205344        2.5365212609        1.6257484371
 H          2.3340532597        1.0189087621        3.3433810498
 H          1.2466670660       -1.0732854023        4.0753904056
 H         -0.0252186736       -2.4365202661        2.4605749375
 H         -0.6120513317       -2.9578889194        0.3215194360
 C          0.1703629705       -2.1572220975       -1.4911106816
 C          1.2679412089       -3.1676470454       -1.6321384585
 C         -0.0779895208       -3.4336593014       -2.2351642694
 H         -0.1822323922       -3.3917090353       -3.3090322064
 H         -0.7136511001       -4.1696912853       -1.7642368443
 H          2.0880912469       -2.9470320901       -2.2985273571
 H          1.5470551751       -3.7276394228       -0.7523118152
 H          0.2364746295       -1.2498558399       -2.0772431016
