  62
        -98.94021278
 C          1.3623196111        1.2097109824       -0.1586715078
 C          2.4740928605        1.2755279620        0.7154401219
 C          3.2643894433        0.0429475575        0.8702124780
 C          2.8749919778       -1.0655117469        0.2167394777
 C          3.5577321365       -2.4051704077        0.2101029143
 C          4.5113926975       -2.5223303849       -0.9907574757
 C          5.9221135379       -1.9883873970       -0.7452568883
 H          6.4503136939       -2.6663263773       -0.0713960879
 H          6.4475616172       -2.0050190964       -1.7029185863
 C          5.9966008936       -0.5717556741       -0.1691965035
 H          5.2748861716        0.0710548275       -0.6764324221
 H          6.9902231344       -0.1744520992       -0.3859014828
 C          5.7642376994       -0.5238177894        1.3484611657
 H          6.5727636016        0.0392054773        1.8193942096
 H          5.8201518486       -1.5359155649        1.7491282437
 C          4.4494631948        0.1358114147        1.7921222672
 H          4.1634347697       -0.2618638769        2.7716378359
 H          4.6099692040        1.2098744021        1.9286830238
 H          4.5936599753       -3.5738023610       -1.2732604754
 H          4.0582494683       -1.9917547749       -1.8319024503
 H          4.0816289130       -2.5754819046        1.1458722683
 H          2.7733890535       -3.1568299440        0.1050681397
 O          1.7885584183       -1.0913591941       -0.6004560023
 C          1.0067995239        0.0303143413       -0.8147259708
 O          0.0561173626       -0.1554556846       -1.5965037074
 O          2.7977111516        2.3233498991        1.3370522840
 C          0.5037713531        2.4546517642       -0.3174954734
 C         -0.8091521780        2.1704444212        0.3666948439
 C         -0.9064449918        2.3256591402        1.7466960814
 C         -2.0617130413        1.9720888929        2.4188223358
 C         -3.1388707775        1.4390320998        1.7313957408
 C         -3.0451483785        1.2697881806        0.3567240258
 C         -1.8968357783        1.6545729590       -0.3213835791
 H         -1.8381366111        1.5084220212       -1.3879391081
 N         -4.1230491898        0.6878080531       -0.3468787924
 S         -4.4967104229       -0.8953693412        0.0556687700
 O         -5.4214107539       -1.3415907296       -0.9618175255
 O         -4.9834870842       -0.9249367321        1.4122852375
 C         -2.9707992393       -1.8112514112       -0.0621284345
 C         -2.0888750315       -1.7943947059        0.9994098293
 C         -0.8906127249       -2.4792117953        0.8823144361
 C         -0.5975711466       -3.1650166130       -0.2852941984
 C         -1.4916320238       -3.1684674373       -1.3431620006
 C         -2.6883718875       -2.4809994610       -1.2348305799
 H         -3.4120200376       -2.4586145808       -2.0340557279
 H         -1.2537245133       -3.6946212352       -2.2536774814
 H          0.3390785361       -3.6920354879       -0.3763440848
 H         -0.1848188491       -2.4657533977        1.6985245032
 H         -2.3499439882       -1.2533409160        1.8947009555
 H         -4.0049768010        0.7435334810       -1.3494942716
 H         -4.0367728953        1.1287450691        2.2407551676
 H         -2.1240314245        2.1048664416        3.4884452290
 H         -0.0551423082        2.7129659421        2.2889126404
 H          1.0227200797        3.2428275255        0.2435862634
 C          0.3686847500        2.8902682995       -1.7606819600
 C         -0.1654311936        4.2573939746       -2.0641581488
 C          1.2830077624        3.9503340897       -2.2942927498
 H          1.6370530172        3.8611173977       -3.3104272041
 H          2.0092423559        4.3729780666       -1.6155430610
 H         -0.8078151093        4.3826955159       -2.9224138271
 H         -0.4235302117        4.8877669551       -1.2266862411
 H          0.1069783305        2.0829824963       -2.4333979196
