  62
        -98.94571500
 C          0.9517515776        1.1577514920       -0.2595377443
 C          1.9759533105        1.1987681542        0.7233962518
 C          2.8715142100        0.0380925407        0.7863995446
 C          2.6791752902       -0.9824597958       -0.0684730422
 C          3.5646064277       -2.1897611476       -0.1730732501
 C          4.6884291360       -1.9655719763       -1.1949947229
 C          5.4442690214       -0.6502452809       -1.0070071055
 H          6.2312709405       -0.6162884908       -1.7636811394
 H          4.7673074454        0.1824562524       -1.2113127436
 C          6.0652098208       -0.4678702596        0.3849892904
 H          6.1307359520       -1.4317256452        0.8909387381
 H          7.0845732381       -0.0940335351        0.2675268411
 C          5.3264747069        0.5266476794        1.2824143839
 H          5.1798910554        1.4665356204        0.7442677904
 H          5.9606318629        0.7409403984        2.1468447296
 C          3.9661756743        0.0598384964        1.8159081671
 H          4.0726467621       -0.9196992670        2.2856978346
 H          3.6464744744        0.7755025305        2.5786814301
 H          5.3879219996       -2.8009251673       -1.1281855329
 H          4.2513806518       -1.9675971476       -2.1962377742
 H          3.9892480767       -2.4086669859        0.8045896921
 H          2.9592107506       -3.0362991750       -0.4984008826
 O          1.6779452781       -0.9986701895       -0.9812388416
 C          0.7831228076        0.0560898421       -1.0987484879
 O         -0.0804038350       -0.1271154338       -1.9786557232
 H         -1.9799274956        0.6004217811       -0.8103777242
 C         -2.1405128869        1.1730889778        0.0896334800
 C         -1.2139770100        2.1314223528        0.4786911446
 C         -1.4436190219        2.8536884371        1.6444392129
 C         -2.5771812776        2.6250885351        2.4033593983
 C         -3.4939455601        1.6636763180        2.0205801967
 C         -3.2701293044        0.9312841101        0.8585116537
 N         -4.1816192561       -0.0550299430        0.4647851353
 S         -3.7537116172       -1.3391509926       -0.5036203540
 O         -3.6562923634       -0.9193153908       -1.8780468271
 O         -4.7805094426       -2.3271843115       -0.2328380981
 C         -2.1942888735       -1.9784789199        0.0846149833
 C         -1.4030584083       -2.6580563124       -0.8181849698
 C         -0.2297321542       -3.2466613289       -0.3756264279
 C          0.1376502439       -3.1366237835        0.9558362573
 C         -0.6640348900       -2.4450601157        1.8494935690
 C         -1.8473290024       -1.8687239928        1.4161438111
 H         -2.4842972398       -1.3338817547        2.1016594398
 H         -0.3716982434       -2.3525456878        2.8832948489
 H          1.0552752885       -3.5877294170        1.2997373322
 H          0.3949667843       -3.7776158526       -1.0761261156
 H         -1.7097355449       -2.6977966339       -1.8509384250
 H         -4.8919627179       -0.2967665351        1.1389872997
 H         -4.3764234171        1.4757994703        2.6127143184
 H         -2.7449110279        3.1941276314        3.3049314534
 H         -0.7164300140        3.5869104388        1.9602687538
 C          0.0375853757        2.3702948333       -0.3308190346
 H          0.5985001931        3.1784676630        0.1588429531
 C         -0.2952453270        2.8111799046       -1.7414727007
 C         -0.6997694278        4.2346017240       -1.9772732702
 C          0.6339483589        3.7450782200       -2.4546442493
 H          0.7879072971        3.6079500276       -3.5144629875
 H          1.5163864726        4.0737648652       -1.9248161708
 H         -1.4666783242        4.4360540369       -2.7093882514
 H         -0.7196025875        4.8975314633       -1.1254304576
 H         -0.7801918655        2.0462800468       -2.3339751536
 O          2.1379284578        2.1720253301        1.5071092693
