  62
        -98.94011982
 C          1.1197274993        1.3868803171        0.3195758581
 C          1.4578032581        0.5313175879       -0.7537645992
 C          2.4618773611       -0.5132495626       -0.4742319736
 C          2.9548665850       -0.6517974368        0.7696442457
 C          3.9366811737       -1.6502409982        1.3465930544
 C          4.8388966978       -2.4786102537        0.4348027127
 C          5.8724328327       -1.6729590374       -0.3512028919
 H          6.6098228706       -1.2735776719        0.3497173844
 H          6.3931517372       -2.3550994140       -1.0269895611
 C          5.3216081282       -0.4994575559       -1.1579581486
 H          4.9037240982        0.2479307970       -0.4803912711
 H          6.1610404659       -0.0279133923       -1.6762641299
 C          4.2719916172       -0.8606517674       -2.2076946361
 H          4.0931388340        0.0322036102       -2.8128803214
 H          4.6640977911       -1.6372283351       -2.8673970263
 C          2.9128896933       -1.3251775206       -1.6542441736
 H          2.1620796142       -1.1791936672       -2.4360370549
 H          2.9301662790       -2.3852923889       -1.4130305206
 H          4.2429338791       -3.0876111315       -0.2386039774
 H          5.3846679336       -3.1691401658        1.0836381077
 H          4.5609775275       -1.0815618656        2.0428164661
 H          3.3442512586       -2.3399957937        1.9578142435
 O          2.5410914140        0.1487504404        1.7935541120
 C          1.6551637492        1.1886660555        1.5958399798
 O          1.4230000264        1.8613787569        2.6190137019
 H         -1.1243129047        0.8712992325       -1.4591246814
 C         -1.7703604845        1.2284886569       -0.6707334853
 C         -1.2684314162        2.1203748166        0.2661159309
 C         -2.1089603776        2.5573696625        1.2827334437
 C         -3.4176931410        2.1119668466        1.3578272649
 C         -3.9100081480        1.2112771243        0.4296365998
 C         -3.0735822104        0.7653539798       -0.5843391740
 N         -3.5432961767       -0.2132402851       -1.4947041513
 S         -3.7723094906       -1.7114563307       -0.7742926316
 O         -3.7662715341       -2.6779812298       -1.8484064935
 O         -4.9681659309       -1.6600944530        0.0275142084
 C         -2.3453028588       -1.9238831849        0.2770353660
 C         -2.4112555269       -1.5065241551        1.5912402933
 C         -1.2723023798       -1.5821419878        2.3757262066
 C         -0.0954643044       -2.0776437064        1.8374568782
 C         -0.0474734030       -2.5026765543        0.5190995246
 C         -1.1796109500       -2.4155812543       -0.2742660093
 H         -1.1773520497       -2.7305018379       -1.3056422686
 H          0.8697455655       -2.8888802722        0.1051489933
 H          0.7902373956       -2.1265114436        2.4516916613
 H         -1.3007639354       -1.2478461725        3.4004001914
 H         -3.3467072007       -1.1351772033        1.9759434632
 H         -2.9210947881       -0.3262018073       -2.2842849181
 H         -4.9160366831        0.8282634219        0.4883711550
 H         -4.0585275577        2.4621629648        2.1526035663
 H         -1.7245297865        3.2375488268        2.0286032203
 C          0.1702642832        2.5699056416        0.1938403071
 H          0.3677123675        3.1998746486        1.0712728556
 C          0.4168365014        3.3971404201       -1.0534454667
 C         -0.0287111548        4.8268791391       -1.0774898237
 C          1.4321781282        4.4973785938       -1.0146793488
 H          2.0404569838        4.6682627792       -1.8902259058
 H          1.9532475923        4.6646784215       -0.0829873505
 H         -0.4269688339        5.2266297652       -1.9973892136
 H         -0.4972182036        5.2209581114       -0.1883506771
 H          0.3364109583        2.8290491294       -1.9706279241
 O          0.9598109880        0.6066646472       -1.9099246004
