  62
        -98.94388408
 C         -1.8125539688       -1.1770428297       -0.0466255305
 C         -2.2114680287       -0.0565767998       -0.8145161805
 C         -3.6625719387        0.1347795703       -0.9590930706
 C         -4.5059642288       -0.7386463697       -0.3795637207
 C         -6.0022873688       -0.6248478097       -0.3948015908
 C         -6.5103321488        0.1657795503        0.8192495492
 C         -5.7791931089        1.4891346203        1.0459516092
 H         -4.7394356289        1.2826631303        1.3101417293
 H         -6.2406111889        1.9715699603        1.9103356492
 C         -5.8140417588        2.4475136603       -0.1526629908
 H         -6.0454704388        3.4519360203        0.2080730892
 H         -6.6123952087        2.1572002703       -0.8366415009
 C         -4.4970069687        2.5448082203       -0.9249923807
 H         -3.6767308087        2.7456599203       -0.2307975306
 H         -4.5638030486        3.3972734603       -1.6064420207
 C         -4.1249204486        1.3161963003       -1.7644289807
 H         -3.2791814586        1.5934620702       -2.4009023906
 H         -4.9634108986        1.0415687003       -2.4078174707
 H         -6.3841362689       -0.4515988297        1.7115654392
 H         -7.5767672488        0.3558049303        0.6854354091
 H         -6.4245306088       -1.6306263297       -0.3648983708
 H         -6.3149442587       -0.1372321397       -1.3160356408
 O         -4.0839165888       -1.8096136397        0.3398553094
 C         -2.7336496288       -2.0493954597        0.5340600195
 O         -2.4840974889       -3.0526943497        1.2321371195
 O         -1.4043169587        0.7450538302       -1.3536373804
 C         -0.3368336288       -1.4606596598        0.1804682297
 C          0.2888690011       -0.2856364998        0.8901048997
 C         -0.2119216589        0.0674928303        2.1417585597
 C          0.2995273510        1.1508960603        2.8276658197
 C          1.3266156811        1.9020373703        2.2828349398
 C          1.8336450811        1.5580812402        1.0353111398
 C          1.3224902212        0.4621223302        0.3502179398
 H          1.7164397213        0.2313271402       -0.6248776502
 N          2.8622280412        2.3131846902        0.4653809499
 S          3.8931204913        1.7358433702       -0.7000010200
 O          5.0067987613        2.6613509602       -0.6690060100
 O          3.2258536614        1.6061380002       -1.9710720801
 C          4.4459537312        0.1315498702       -0.1446936400
 C          4.6854224911       -0.0877554498        1.1971594600
 C          5.1517391111       -1.3289092198        1.6001785801
 C          5.3796046312       -2.3224063398        0.6606763201
 C          5.1427824813       -2.0846379698       -0.6838843199
 C          4.6702719913       -0.8472920798       -1.0913943300
 H          4.4638586814       -0.6207996098       -2.1254526500
 H          5.3212631713       -2.8575562198       -1.4142714699
 H          5.7436078111       -3.2870462698        0.9772374001
 H          5.3360544910       -1.5165694798        2.6457190201
 H          4.5051075111        0.6994028202        1.9105353500
 H          3.2691344312        3.0314180002        1.0435167499
 H          1.7226424810        2.7554919503        2.8114335698
 H         -0.1017457791        1.4147264303        3.7945754997
 H         -1.0179000290       -0.5190634697        2.5621830096
 H         -0.2972065389       -2.3269184098        0.8563373997
 C          0.3410174813       -1.8301177198       -1.1208366503
 C          1.5899970413       -2.6570014498       -1.1023436302
 C          0.3008252113       -3.2570600098       -1.5753186603
 H          0.1799758814       -3.4592774498       -2.6289939403
 H         -0.2019177287       -3.9667563098       -0.9343682303
 H          2.3549355914       -2.4449346298       -1.8331898701
 H          1.9732956212       -2.9629751298       -0.1407145902
 H          0.2482222814       -1.0613036898       -1.8795697003
