  62
        -98.93809288
 C         -2.0314116349       -0.7666670917        0.6019496745
 C         -1.9869970809       -0.0162055486       -0.5962914769
 C         -2.0029158203        1.4480714025       -0.4490440925
 C         -2.0099840803        1.9875726327        0.7812573531
 C         -1.9595922744        3.4455889990        1.1657676357
 C         -2.8352374442        4.4208189173        0.3661030106
 C         -4.1584893892        3.8347775457       -0.1478305224
 H         -4.3457127159        2.8680040043        0.3224303292
 H         -4.9749631247        4.5006878918        0.1372245123
 C         -4.1901418257        3.6769900338       -1.6699359174
 H         -3.7537021176        4.5696519559       -2.1229171877
 H         -5.2315319206        3.6198552960       -1.9952006710
 C         -3.4773287982        2.4403772923       -2.2163477355
 H         -4.0423533549        1.5412702957       -1.9563118128
 H         -3.4690096718        2.5101022983       -3.3066258238
 C         -2.0344503640        2.2374261887       -1.7254743517
 H         -1.5041684008        1.6289332861       -2.4631830944
 H         -1.5111240137        3.1851021693       -1.6232422781
 H         -2.2672135359        4.8087443040       -0.4782275022
 H         -3.0420953026        5.2679651419        1.0222368481
 H         -2.2493346750        3.4711837420        2.2192424684
 H         -0.9153760231        3.7686148275        1.1116052284
 O         -2.0315508667        1.2249676976        1.9128079521
 C         -2.0328594755       -0.1574900506        1.8535685378
 O         -2.0434711945       -0.7220834243        2.9685474383
 H          0.4503734368       -1.2378317812        0.9511505798
 C          0.4825624776       -2.0019624203        0.1865783279
 C         -0.6804571062       -2.6802825420       -0.1557822983
 C         -0.6087119156       -3.6728043408       -1.1242007746
 C          0.5924076473       -3.9450756141       -1.7569268917
 C          1.7352101768       -3.2299425477       -1.4510825866
 C          1.6775602455       -2.2496840255       -0.4659829603
 N          2.8201626784       -1.5126069708       -0.1073327079
 S          2.6089672931        0.0935653928        0.3723129923
 O          2.2870091807        0.1180756843        1.7786258819
 O          1.6895177062        0.7730562531       -0.5116746917
 C          4.2659860498        0.7094144349        0.1314081663
 C          5.2157017190        0.4601077159        1.1041938836
 C          6.5128150665        0.9049202037        0.9036271342
 C          6.8373523178        1.5866268042       -0.2600081563
 C          5.8732045633        1.8314241797       -1.2262415840
 C          4.5741833797        1.3880295644       -1.0324563056
 H          3.7887623729        1.5607929142       -1.7508810292
 H          6.1269941178        2.3647683563       -2.1281102544
 H          7.8473705723        1.9322018200       -0.4133920800
 H          7.2639761408        0.7189336138        1.6541098757
 H          4.9127702262       -0.0650938286        1.9950049272
 H          3.5711120610       -1.6031231157       -0.7784060060
 H          2.6633006426       -3.4245829235       -1.9665767864
 H          0.6336889259       -4.7130070758       -2.5144628041
 H         -1.4955911582       -4.2219812913       -1.3949832691
 C         -1.9578794340       -2.2820754721        0.5449691608
 H         -1.9007336106       -2.6246868213        1.5891897887
 C         -3.2045401385       -2.8561255024       -0.0948651450
 C         -3.6984975698       -4.2158171419        0.2957419788
 C         -4.4447846743       -2.9928248141        0.7344030542
 H         -5.3978705621       -2.7750130429        0.2764125346
 H         -4.3804372104       -2.6951845745        1.7712397468
 H         -3.1347270065       -4.7573400837        1.0402393570
 H         -4.1444897252       -4.8401613101       -0.4636421850
 H         -3.3226282073       -2.5410220957       -1.1252031028
 O         -1.9330291383       -0.5431556543       -1.7385312258
