  62
        -98.94379409
 C         -1.9038104051       -1.0421918866        0.0666700418
 C         -1.3042998659       -1.8694338535       -0.9132868460
 C         -0.2194208964       -2.7521794265       -0.4521746896
 C          0.1142198200       -2.7624889099        0.8496764328
 C          1.1464213035       -3.6116700063        1.5482799227
 C          2.5099548769       -3.7810552660        0.8643007818
 C          2.9838326530       -2.5739288024        0.0415722758
 H          2.3632449769       -1.7005910629        0.2500463850
 H          4.0042385459       -2.3206862012        0.3358763413
 C          2.9835738679       -2.8404867701       -1.4654087565
 H          3.6440570920       -2.1159812346       -1.9486970128
 H          3.3944990514       -3.8364602813       -1.6482702348
 C          1.6227992315       -2.7231428443       -2.1515282328
 H          1.7431381235       -3.0403266679       -3.1909192031
 H          1.3188526355       -1.6723995745       -2.1761330486
 C          0.4850813647       -3.5411824827       -1.5167980569
 H         -0.2604710379       -3.7369245755       -2.2926220185
 H          0.8501931491       -4.4935886159       -1.1385049171
 H          2.4881813211       -4.6590356228        0.2200796447
 H          3.2346231314       -3.9879070405        1.6533001556
 H          0.7103867799       -4.5997839140        1.7217561352
 H          1.2851165871       -3.1447429668        2.5258834801
 O         -0.5163359092       -1.9761114391        1.7666739199
 C         -1.5026620827       -1.0706140522        1.4008483918
 O         -1.9275982056       -0.3748949935        2.3416476505
 O         -1.6672529570       -1.8772321045       -2.1203574073
 C         -2.9535630034       -0.0315318737       -0.3645001794
 C         -2.3783194861        1.3518949945       -0.1755848677
 C         -2.9463920948        2.3268266486        0.6328164371
 C         -2.3183029459        3.5501603890        0.7945281906
 C         -1.1142857039        3.8195460078        0.1707117268
 C         -0.5417731267        2.8544188392       -0.6520376450
 C         -1.1874643960        1.6418951296       -0.8325153757
 H         -0.7469010155        0.9010260564       -1.4842950939
 N          0.6721197627        3.1068859592       -1.3146668191
 S          1.8977273467        1.9726241025       -1.3672016534
 O          3.0125555679        2.6804255893       -1.9573570771
 O          1.4537699281        0.7905373461       -2.0572273141
 C          2.2716815365        1.5979364300        0.3343949262
 C          3.3475616211        2.2176454588        0.9397274838
 C          3.6108650168        1.9522776075        2.2737564791
 C          2.7900726219        1.0866909878        2.9814967366
 C          1.7102654589        0.4770244922        2.3619572155
 C          1.4500491051        0.7301707958        1.0245866741
 H          0.6184711160        0.2660961105        0.5165229615
 H          1.0578721396       -0.1899959340        2.9041975624
 H          2.9904135788        0.8831546242        4.0215385494
 H          4.4513155583        2.4222154382        2.7586391971
 H          3.9588434719        2.8815230108        0.3501343082
 H          1.0558912053        4.0244879249       -1.1395209285
 H         -0.6201642498        4.7686797946        0.3124108791
 H         -2.7672731489        4.2998439565        1.4280867837
 H         -3.8735822150        2.1269733663        1.1434723769
 H         -3.0935497342       -0.1990410268       -1.4426318775
 C         -4.2716296402       -0.2570424734        0.3423035302
 C         -5.5429450970        0.2404289366       -0.2760229575
 C         -5.2514424387       -1.2289029404       -0.2408091523
 H         -5.8199250587       -1.8531232544        0.4320991508
 H         -4.9763671321       -1.7200479238       -1.1629955165
 H         -6.3166529255        0.6244139028        0.3712362267
 H         -5.4698945720        0.7483256487       -1.2258982494
 H         -4.1804246232       -0.2293793604        1.4217810420
