  62
        -98.94483427
 C         -2.0240649522       -1.3740427907        0.2816985518
 C         -2.6297149489       -0.7344146012       -0.8271072953
 C         -3.7747062961        0.1299288959       -0.5131361265
 C         -4.1944618565        0.2522365101        0.7592940909
 C         -5.3624066817        1.0752594686        1.2312827174
 C         -5.0281152483        2.5546946939        1.4667462268
 C         -4.8055808603        3.3810354527        0.1993010786
 H         -5.6515811348        3.2450178143       -0.4749912431
 H         -4.7931247718        4.4309415888        0.4987589774
 C         -3.4987756514        3.0641910593       -0.5418077347
 H         -2.9966596752        3.9960319036       -0.8121232334
 H         -2.8237337065        2.5218343469        0.1246844042
 C         -3.6776632067        2.2565406422       -1.8276313170
 H         -4.2389430450        2.8469220601       -2.5552318201
 H         -2.6876218961        2.0575752771       -2.2467314802
 C         -4.3900342813        0.9112029652       -1.6342286166
 H         -5.4527598740        1.0702925043       -1.4530438305
 H         -4.2726363005        0.3272725577       -2.5502598182
 H         -4.1411121368        2.6163760943        2.1017979615
 H         -5.8622284977        2.9936726976        2.0188999044
 H         -6.1801882036        0.9955598630        0.5147752808
 H         -5.6864545929        0.6407335333        2.1794348475
 O         -3.5924133808       -0.3920570003        1.7948033924
 C         -2.4796771247       -1.1927164560        1.5865410117
 O         -1.9914518427       -1.6763602936        2.6289514979
 H          0.0388598404        0.1545613633        0.7497817643
 C          0.6002113164       -0.2258288971       -0.0954197157
 C          0.2909801188       -1.4837724688       -0.5993283499
 C          1.0319713938       -1.9667350367       -1.6694091671
 C          2.0267880613       -1.1911771115       -2.2408575115
 C          2.3117908988        0.0708782015       -1.7548536980
 C          1.5931783304        0.5536177807       -0.6676974959
 N          1.8892083755        1.8255818953       -0.1501940093
 S          3.4984806953        2.2438913726        0.0369857330
 O          3.5169575519        3.1967990919        1.1247769498
 O          4.0269172716        2.7146375853       -1.2190794164
 C          4.3266049368        0.7356093342        0.5097761769
 C          5.3373131918        0.2277103371       -0.2806202544
 C          5.9463500708       -0.9602613099        0.0909681343
 C          5.5331473079       -1.6183058343        1.2387013607
 C          4.5184695671       -1.0933849778        2.0246682034
 C          3.9078668506        0.0951006550        1.6592510598
 H          3.1192038464        0.5301015080        2.2525656383
 H          4.1974023136       -1.6057968632        2.9174424421
 H          6.0032141691       -2.5459108908        1.5246107886
 H          6.7369974450       -1.3696110847       -0.5168183364
 H          5.6244771752        0.7703153366       -1.1665093217
 H          1.3450548084        2.0790515084        0.6606216993
 H          3.0676664779        0.6947768384       -2.2034536435
 H          2.5850525359       -1.5738395756       -3.0813704488
 H          0.8232396551       -2.9465267201       -2.0656789513
 C         -0.8145666524       -2.2660275799        0.0684292638
 H         -0.4691967078       -2.5563004341        1.0715840459
 C         -1.2158654790       -3.5151903465       -0.6882258287
 C         -0.4809310666       -4.8021569749       -0.4674220575
 C         -1.8715115675       -4.6325955529        0.0642387226
 H         -2.6776984105       -5.1712679346       -0.4107130559
 H         -2.0032487532       -4.5019457229        1.1288054092
 H         -0.3339336287       -5.4632889298       -1.3080597894
 H          0.3341907904       -4.7980363469        0.2401245597
 H         -1.5865057233       -3.2972317121       -1.6831400661
 O         -2.2376221816       -0.8746487001       -2.0137921617
