  62
        -98.94065905
 C         -2.0057479892       -1.5082319908        0.3615459622
 C         -2.3010790722       -0.8518635305       -0.8588588111
 C         -2.9685020375        0.4528969263       -0.7333502806
 C         -3.2347531615        0.9635646271        0.4812537760
 C         -3.8720520829        2.2961193092        0.7647005468
 C         -2.8765798230        3.4645121889        0.7411687148
 C         -2.3911141109        3.8807120203       -0.6479706789
 H         -3.2508412926        4.0410660002       -1.2993918737
 H         -1.8849919029        4.8410012566       -0.5351690164
 C         -1.4218716220        2.8898164723       -1.3079592016
 H         -1.0082992258        2.2217862620       -0.5481992894
 H         -0.5811315840        3.4356996676       -1.7414113339
 C         -2.0388246245        2.0508202020       -2.4270069768
 H         -2.3414254280        2.7019036225       -3.2501691356
 H         -1.2744348382        1.3671435367       -2.8054305460
 C         -3.2497060863        1.2141239983       -1.9942913382
 H         -4.1220799330        1.8538894121       -1.8645694797
 H         -3.4624718138        0.4875154072       -2.7824773810
 H         -2.0171720032        3.1988813617        1.3601853583
 H         -3.3707878336        4.3230938265        1.2011024726
 H         -4.6760207516        2.4823012698        0.0524112308
 H         -4.3030079322        2.2288939655        1.7657865755
 O         -2.9415501074        0.2994065263        1.6303126488
 C         -2.3162882464       -0.9343780683        1.5983316279
 O         -2.0921367161       -1.4221018641        2.7240849796
 H          0.2295435600       -1.2564212011       -1.1410950444
 C          0.8230154664       -1.7323451978       -0.3736549395
 C          0.2087473365       -2.6027468199        0.5175464046
 C          0.9855541025       -3.2125685961        1.4942347892
 C          2.3451277880       -2.9607113782        1.5707564502
 C          2.9549674991       -2.0969667442        0.6790034062
 C          2.1841469142       -1.4727880013       -0.2957662354
 N          2.7872057366       -0.5939701097       -1.2160322864
 S          3.6765225282        0.7167061054       -0.6863391903
 O          4.0592925697        1.4255530733       -1.8846333126
 O          4.7508375006        0.2462725675        0.1506650927
 C          2.5735785161        1.7376259586        0.2788081369
 C          2.2166206211        2.9788744563       -0.2094772049
 C          1.3796727252        3.7838598178        0.5462041219
 C          0.9035127178        3.3298140027        1.7663092353
 C          1.2596241618        2.0754076810        2.2376507158
 C          2.1082807459        1.2711995823        1.4929459213
 H          2.4115807562        0.2980053523        1.8437260739
 H          0.8800148017        1.7166734624        3.1815961013
 H          0.2545074241        3.9576386036        2.3567532963
 H          1.1009080845        4.7600156532        0.1838206614
 H          2.6100347010        3.2901800035       -1.1636958769
 H          2.1642304584       -0.3038898206       -1.9562247499
 H          4.0093189083       -1.8805376051        0.7353721494
 H          2.9379236611       -3.4416637295        2.3339995700
 H          0.5155694479       -3.8752108117        2.2059271819
 C         -1.2781642619       -2.8409171313        0.4403563507
 H         -1.5897795832       -3.2877413951        1.3975812839
 C         -1.6706692876       -3.8139537971       -0.6622600581
 C         -0.7557718849       -4.2150630521       -1.7762544829
 C         -1.0764171368       -5.1912113993       -0.6869824149
 H         -1.7192755281       -6.0287894724       -0.9113070908
 H         -0.2988543464       -5.4096515592        0.0295893743
 H          0.2357722689       -3.7907577839       -1.8043682334
 H         -1.1920164595       -4.3590742314       -2.7528858942
 H         -2.7232595281       -3.7354959951       -0.9132626035
 O         -2.0226250033       -1.3009041014       -2.0006834744
