  62
        -98.94460083
 C         -2.1492483587        0.9700762270        0.4238641144
 C         -3.1738047761        1.1944807324       -0.5281183488
 C         -4.4494780201        0.5196150978       -0.2674694285
 C         -4.5866555628       -0.2468025885        0.8299081276
 C         -5.8321429962       -0.9822231730        1.2446804135
 C         -6.0041264833       -2.3498981422        0.5695936699
 C         -6.3899986835       -2.3017496883       -0.9093692110
 H         -6.6889727558       -3.3122707346       -1.1950130593
 H         -7.2604974622       -1.6572452796       -1.0357972034
 C         -5.2630666311       -1.8381375980       -1.8429689490
 H         -5.2097343451       -2.5036699720       -2.7075511154
 H         -4.3051766418       -1.9134891093       -1.3227985179
 C         -5.4273257167       -0.4148436410       -2.3761745227
 H         -4.5576493234       -0.1781686464       -2.9943169266
 H         -6.3151083587       -0.3614171238       -3.0101619647
 C         -5.5403932293        0.6589564706       -1.2860387157
 H         -5.4319191097        1.6387528474       -1.7575105045
 H         -6.5178324101        0.6074115607       -0.8070668539
 H         -5.0769569578       -2.9160125255        0.6862789927
 H         -6.7891108151       -2.8834982436        1.1105553605
 H         -6.7073224684       -0.3634634557        1.0442088295
 H         -5.7560059264       -1.1383104412        2.3229403171
 O         -3.5812101276       -0.4290617133        1.7263997415
 C         -2.3344928574        0.1520660839        1.5382673912
 O         -1.5042591341       -0.1258455964        2.4245784124
 O         -3.0284757890        1.9247541305       -1.5442405513
 C         -0.7942964166        1.6186563540        0.1958785288
 C          0.2238371020        0.5335218318       -0.0502484992
 C          0.1151568100       -0.2285537117       -1.2113484380
 C          0.9966595385       -1.2610203106       -1.4660434682
 C          2.0081150612       -1.5571363857       -0.5684024420
 C          2.1296685018       -0.7988912831        0.5877686883
 C          1.2482820046        0.2465787188        0.8369530775
 H          1.3509103754        0.8176006767        1.7459068221
 N          3.1575646771       -1.0892312525        1.4981389416
 S          4.6877095479       -1.3998293418        0.9030331117
 O          4.7645219455       -2.7607520277        0.4328803847
 O          5.5897323909       -1.0524400011        1.9784859033
 C          4.8875840749       -0.2749416006       -0.4680408506
 C          5.0658132937       -0.7665035331       -1.7449106874
 C          5.1858166374        0.1276116000       -2.7969288245
 C          5.1231571810        1.4908510912       -2.5549335577
 C          4.9473777555        1.9695683211       -1.2654297742
 C          4.8270719791        1.0804361582       -0.2101920163
 H          4.6956947288        1.4202746730        0.8044343089
 H          4.9009724736        3.0305892637       -1.0795301710
 H          5.2123499402        2.1855342842       -3.3751971709
 H          5.3244736524       -0.2417760506       -3.8002311248
 H          5.1083991310       -1.8337794193       -1.8892051021
 H          3.1800142509       -0.4863316038        2.3065529271
 H          2.6926897626       -2.3719677315       -0.7390804713
 H          0.8952650812       -1.8455673954       -2.3678066757
 H         -0.6805180856       -0.0024183469       -1.9077873293
 H         -0.9051382416        2.1987491096       -0.7310269614
 C         -0.4371937830        2.5638299856        1.3224247343
 C          0.6034422959        3.6197958806        1.1017625515
 C         -0.8403072475        4.0031379188        1.2211594366
 H         -1.1692241743        4.5091861583        2.1164989230
 H         -1.3646146729        4.3121944474        0.3288926662
 H          1.2683328995        3.8689094954        1.9149155159
 H          1.0601737031        3.6698021717        0.1251918708
 H         -0.4986726416        2.1005533568        2.3004456310
