  62
        -98.94489982
 C          1.9272174510        0.9389831922       -0.3054880738
 C          3.0371240731        1.2084397883        0.5347969086
 C          4.3274009442        0.6745888121        0.0876147278
 C          4.3987296502       -0.0218864229       -1.0613107733
 C          5.6454204416       -0.6117033359       -1.6627888030
 C          6.0244357073       -1.9859129714       -1.0939010461
 C          6.5831740980       -1.9692075336        0.3294803305
 H          7.0073300441       -2.9573932167        0.5184201361
 H          7.3990596879       -1.2482279115        0.3898216467
 C          5.5415580104       -1.6636128210        1.4149744370
 H          4.5377606074       -1.8082643200        1.0082796169
 H          5.6563855031       -2.3713171466        2.2391198978
 C          5.6381053134       -0.2579063958        2.0080415921
 H          6.5880827202       -0.1474223121        2.5356113697
 H          4.8322738425       -0.1378370777        2.7364855642
 C          5.5175408402        0.8720604307        0.9771649067
 H          6.4293027135        0.9391804626        0.3841430753
 H          5.3785284040        1.8131362401        1.5147991929
 H          6.7828218099       -2.4134246409       -1.7539260613
 H          5.1463359998       -2.6348494490       -1.1331505872
 H          5.4516556189       -0.7237196290       -2.7317824674
 H          6.4781748428        0.0798113890       -1.5312916332
 O          3.3114655106       -0.2577645542       -1.8413438085
 C          2.0497274190        0.1937644685       -1.4781865629
 O          1.1507091549       -0.1222430728       -2.2811053060
 O          2.9522321320        1.8687417999        1.6037172057
 C          0.5643123778        1.4522622645        0.1287640036
 C         -0.2868653770        0.2740548475        0.5298833075
 C         -0.1207551490       -0.2889478528        1.7921580294
 C         -0.8661739174       -1.3859384097        2.1826445605
 C         -1.7900309662       -1.9497737370        1.3192964612
 C         -1.9544097291       -1.4010383054        0.0552941643
 C         -1.2159933526       -0.2905245595       -0.3302858303
 H         -1.3472920059        0.1165594250       -1.3203422645
 N         -2.9033613956       -1.9677525847       -0.8256437193
 S         -4.5013409264       -1.8009965464       -0.3498926320
 O         -4.7347440523       -2.6299221235        0.8050153992
 O         -5.2959853392       -2.0937643407       -1.5209237139
 C         -4.6508108087       -0.0792990772        0.0906701638
 C         -4.3660917245        0.3130671714        1.3831616784
 C         -4.3946993179        1.6632851229        1.6931160588
 C         -4.7042816208        2.5920389438        0.7116826179
 C         -4.9911346124        2.1810194623       -0.5810298301
 C         -4.9575826687        0.8331155012       -0.8989831655
 H         -5.1765738632        0.4710377380       -1.8908783732
 H         -5.2361905588        2.9058394564       -1.3408479052
 H         -4.7224530404        3.6427207684        0.9550219512
 H         -4.1714917886        1.9852761639        2.6975978049
 H         -4.1343137357       -0.4393144644        2.1188834400
 H         -2.7975212658       -1.6377408468       -1.7749610040
 H         -2.3900989166       -2.7980721538        1.6067905043
 H         -0.7271846784       -1.8081738882        3.1664139131
 H          0.6084931545        0.1439234303        2.4627161996
 H          0.7575468398        2.0524666449        1.0280563547
 C         -0.0820516379        2.3347310371       -0.9186443969
 C         -1.2956232057        3.1330670984       -0.5487793434
 C          0.0127455161        3.8237652865       -0.7861284823
 H          0.1312780835        4.4126560530       -1.6833014664
 H          0.5468229655        4.2166109554        0.0663956894
 H         -2.0805490527        3.2479236192       -1.2802945246
 H         -1.6524518852        3.0500771356        0.4664921969
 H         -0.0301898760        1.9231815081       -1.9193110853
