  62
        -98.93750418
 C          2.2718274658        0.6546182015        0.0798424219
 C          3.1705796848        0.3112975599        1.1233722714
 C          4.1367369728       -0.7653310944        0.8505314799
 C          4.1108257060       -1.3708366108       -0.3489701246
 C          5.0317509692       -2.4454205981       -0.8568365147
 C          6.2084313194       -1.8301151675       -1.6333354897
 C          7.4112063517       -1.4375269806       -0.7762773416
 H          7.9142517233       -2.3422694175       -0.4286044698
 H          8.1099770308       -0.9024599845       -1.4235088520
 C          7.0925859536       -0.5585134385        0.4359901764
 H          6.3772137401        0.2153830527        0.1515988556
 H          8.0132947142       -0.0530033709        0.7338009440
 C          6.5528459354       -1.3542412976        1.6337600394
 H          6.7123928587       -2.4175749229        1.4561342484
 H          7.1292109021       -1.0997858493        2.5256351928
 C          5.0769936799       -1.1024560777        1.9753628059
 H          4.6810281042       -1.9713049321        2.5116305073
 H          5.0018476652       -0.2531432006        2.6616514886
 H          6.5475217713       -2.5482489018       -2.3827479293
 H          5.8346608301       -0.9528646123       -2.1678188581
 H          4.4450186134       -3.0589309512       -1.5437410302
 H          5.3822481137       -3.0703383436       -0.0409094790
 O          3.2256279045       -1.0213289891       -1.3203534778
 C          2.2956367617       -0.0111407816       -1.1450510576
 O          1.5741887552        0.1721080019       -2.1477468255
 O          3.1736122207        0.8956403453        2.2398663695
 C          1.3032524734        1.7896696008        0.3665547611
 C         -0.0800718073        1.2888889590        0.7090985194
 C         -0.6461428719        1.5562595843        1.9500744084
 C         -1.9260395380        1.1230253703        2.2492674857
 C         -2.6653742209        0.4127929723        1.3206144704
 C         -2.1076857386        0.1371380505        0.0789950178
 C         -0.8269263298        0.5785896059       -0.2201493499
 H         -0.3980198764        0.3589622165       -1.1868478726
 N         -2.8432286238       -0.6027932741       -0.8664834397
 S         -4.3582061548       -0.0156147679       -1.2966335844
 O         -4.6213143794       -0.5596037905       -2.6109451412
 O         -4.4226946982        1.4225474673       -1.1715111099
 C         -5.4616879172       -0.7775761720       -0.1248431952
 C         -6.2680324926        0.0087230109        0.6746410903
 C         -7.1257945250       -0.6073815481        1.5727523539
 C         -7.1623615969       -1.9909529641        1.6540948830
 C         -6.3482384610       -2.7664158498        0.8416811395
 C         -5.4893579606       -2.1569352691       -0.0588587840
 H         -4.8437175434       -2.7216625491       -0.7107027439
 H         -6.3797259292       -3.8420745187        0.9075744156
 H         -7.8300440605       -2.4682710135        2.3538943658
 H         -7.7605121991       -0.0065270481        2.2040569714
 H         -6.2011496092        1.0807574680        0.5797670434
 H         -2.3079707595       -0.8211440375       -1.6953841866
 H         -3.6616601430        0.0704356099        1.5482741472
 H         -2.3523141835        1.3386323740        3.2170264693
 H         -0.0708698982        2.0998606086        2.6852537445
 H          1.7064597626        2.2866655808        1.2591588371
 C          1.2308982323        2.8088268449       -0.7549349662
 C          0.7635737123        4.1981030279       -0.4457557629
 C          2.2034680711        3.9477628223       -0.7780514425
 H          2.5813684482        4.2824005725       -1.7324943031
 H          2.9277708164        4.0021392657        0.0216377329
 H          0.1467184869        4.7061908361       -1.1711200661
 H          0.5122001285        4.4243139849        0.5793104546
 H          0.9437297902        2.3822077319       -1.7075032565
