  62
        -98.93501724
 C         -1.7569093243       -0.4364989797       -1.0704775657
 C         -2.1530228759        0.2166929343        0.1185303105
 C         -3.6062664437        0.3451919298        0.3453772648
 C         -4.4579180423       -0.1703105913       -0.5593616358
 C         -5.9658272609       -0.1605565016       -0.5500248118
 C         -6.6477560817       -0.4986689539        0.7847995404
 C         -7.3335526356        0.7024690178        1.4379810426
 H         -7.8165602305        1.2935666768        0.6570964251
 H         -8.1197236055        0.3370311445        2.1025265528
 C         -6.4161816275        1.6054943006        2.2607836610
 H         -6.1331341578        1.0899173065        3.1810756018
 H         -6.9928002081        2.4881784487        2.5474707217
 C         -5.1392939892        2.0626217201        1.5523362954
 H         -5.3486972802        2.3176041763        0.5141952023
 H         -4.7962095889        2.9765375118        2.0418344271
 C         -3.9960805215        1.0389959656        1.6221147647
 H         -3.0786188291        1.5338742342        1.9555919372
 H         -4.2190470447        0.2818988102        2.3795846032
 H         -5.9250207250       -0.9409232184        1.4688294161
 H         -7.4095345903       -1.2547079214        0.5873657272
 H         -6.3085508220        0.8145597130       -0.9048010495
 H         -6.2581634486       -0.8878967166       -1.3108508767
 O         -4.0264407609       -0.7929614671       -1.6948315771
 C         -2.6824562754       -0.9418890136       -1.9807883340
 O         -2.4431727069       -1.5372161361       -3.0514283608
 H          2.1904514147       -0.1451554169       -0.2649334301
 C          1.6807364440       -0.9879410305        0.1710164600
 C          0.4201394846       -1.3506179525       -0.2773614939
 C         -0.1982440866       -2.4573565309        0.2988420128
 C          0.4187122663       -3.1644123157        1.3118791810
 C          1.6761125573       -2.7973850860        1.7582434853
 C          2.3104594330       -1.7061705681        1.1790233211
 N          3.5800521891       -1.3021904295        1.6155412278
 S          4.7201742011       -0.7685721547        0.5156129509
 O          4.5993128710       -1.4487600614       -0.7527101612
 O          5.9862904686       -0.9269873747        1.2000541002
 C          4.3945829408        0.9702741176        0.3162615836
 C          3.9909431778        1.7116576677        1.4088761332
 C          3.7842050355        3.0730098188        1.2532601804
 C          3.9924551247        3.6691489006        0.0187017295
 C          4.4042451070        2.9119776143       -1.0669250807
 C          4.6079984198        1.5487119404       -0.9192719609
 H          4.9160982249        0.9202342824       -1.7397794073
 H          4.5657543038        3.3767755791       -2.0267666524
 H          3.8311919299        4.7292027130       -0.0987691417
 H          3.4601323025        3.6643164273        2.0945546520
 H          3.8346090292        1.2176943714        2.3532098545
 H          3.9913599134       -1.8824918089        2.3318259864
 H          2.1610941450       -3.3502489128        2.5484690322
 H         -0.0794856499       -4.0140823273        1.7544196030
 H         -1.1770938686       -2.7521333247       -0.0551963437
 C         -0.2828533290       -0.6053927518       -1.3861029571
 H         -0.2346320407       -1.2276327235       -2.2926416636
 C          0.3347815094        0.7445013731       -1.6896518546
 C          1.4744337003        0.8602254896       -2.6551735298
 C          0.1121594781        1.3503516994       -3.0416209200
 H         -0.0531246996        2.4149231401       -3.1094871683
 H         -0.4599190402        0.7727934785       -3.7534999582
 H          2.2428350964        1.5916139316       -2.4550916394
 H          1.8397746552       -0.0481801778       -3.1107610687
 H          0.3194968835        1.4087100185       -0.8330466274
 O         -1.3341028890        0.6763572667        0.9565733993
