  62
        -98.94633907
 C         -1.7910055984       -0.7423990903        0.2309957808
 C         -3.0891222285       -0.9967262722        0.7342567030
 C         -4.0119711065        0.1459993260        0.7348635031
 C         -3.5790473134        1.3413217547        0.2934033322
 C         -4.4287291203        2.5737669270        0.1875294699
 C         -5.0864345921        2.6766858539       -1.1957796034
 C         -5.7820853269        1.3920981570       -1.6463047989
 H         -6.2346766072        1.5917305080       -2.6200938333
 H         -5.0310108906        0.6128843649       -1.7957819570
 C         -6.8576616379        0.8793840649       -0.6784039237
 H         -7.1601963482        1.6801131693       -0.0025808948
 H         -7.7392318947        0.5919678795       -1.2552943808
 C         -6.4431817560       -0.3448318196        0.1400951794
 H         -6.0522712769       -1.1166764432       -0.5278737933
 H         -7.3371853438       -0.7510012843        0.6207606777
 C         -5.4066723496       -0.0908725267        1.2419286968
 H         -5.7351384526        0.7381348963        1.8720009455
 H         -5.3517589930       -0.9918730544        1.8600133909
 H         -5.8084245154        3.4950218258       -1.1748804277
 H         -4.3148039805        2.9225588156       -1.9290031267
 H         -5.1917742908        2.5509092563        0.9630460866
 H         -3.7914111476        3.4458455446        0.3424228619
 O         -2.3159201502        1.5533851114       -0.1562552246
 C         -1.3942520101        0.5182996122       -0.2125336985
 O         -0.2805640798        0.8469215286       -0.6615645302
 H          1.8660465858       -1.9156242914       -0.6326087040
 C          1.7232275256       -1.6074776358        0.3890274496
 C          0.4540087719       -1.5312871142        0.9394364951
 C          0.3263143240       -1.1261478263        2.2666676002
 C          1.4375435390       -0.7936421865        3.0156650356
 C          2.7023667353       -0.8499145290        2.4549513603
 C          2.8420144506       -1.2587783033        1.1353632457
 N          4.1156743733       -1.3525035680        0.5418106469
 S          4.4420504198       -0.4918649215       -0.8575473951
 O          3.5494067489       -0.9034310820       -1.9085481308
 O          5.8529611927       -0.7071455868       -1.0965146549
 C          4.1728064020        1.2139920510       -0.4103478497
 C          5.2701023371        1.9850264757       -0.0756549388
 C          5.0738445024        3.2937980794        0.3324070359
 C          3.7867438198        3.8052288601        0.4086542749
 C          2.6975622008        3.0161807070        0.0742338480
 C          2.8849790219        1.7058657484       -0.3400419644
 H          2.0428682901        1.0856790102       -0.6042609068
 H          1.6916403027        3.4013783079        0.1303827385
 H          3.6306478667        4.8234478742        0.7289479776
 H          5.9207307650        3.9089836635        0.5907268395
 H          6.2517526374        1.5461449593       -0.1540678677
 H          4.8763881801       -1.2192381680        1.1939766457
 H          3.5728460942       -0.5841922532        3.0355340456
 H          1.3202027735       -0.4815612096        4.0424092645
 H         -0.6627913578       -1.0748581590        2.7015244062
 C         -0.7916054478       -1.8827873323        0.1656180482
 H         -1.2810839249       -2.7297500733        0.6695039539
 C         -0.5258730954       -2.2654291021       -1.2751448872
 C         -0.1163311777       -3.6650386005       -1.6195445070
 C         -1.4877767182       -3.1764191749       -1.9745200883
 H         -1.7171077597       -2.9866605064       -3.0125110910
 H         -2.3265201140       -3.5448087226       -1.4017288632
 H         -0.0241062484       -4.3723550098       -0.8091918485
 H          0.6015169939       -3.8086247098       -2.4132884661
 H         -0.0971496662       -1.4544616929       -1.8546975449
 O         -3.4554111803       -2.1228618445        1.1660090830
