  62
        -98.93770337
 C          2.0432026042        0.8926470424       -0.0112558875
 C          2.3206981320       -0.0805303536        0.9731968955
 C          2.3948320100       -1.4789544623        0.5197192977
 C          2.1884101826       -1.7616742687       -0.7803399591
 C          2.1173623269       -3.0862586572       -1.5115920190
 C          2.6351504676       -4.3681172588       -0.8643839512
 C          4.1472531321       -4.4104835233       -0.6477747845
 H          4.3873510975       -5.3244642373       -0.1003411490
 H          4.6364424471       -4.4669797438       -1.6232274442
 C          4.7382381792       -3.2158456216        0.0962841636
 H          5.8158849280       -3.3769357239        0.1854874681
 H          4.5952366699       -2.3086763949       -0.4942251217
 C          4.1858415786       -2.9834825116        1.5013247175
 H          4.2762913964       -3.8990626222        2.0888542201
 H          4.8056745225       -2.2183891268        1.9761869778
 C          2.7258987327       -2.5004729528        1.5696882519
 H          2.5763504235       -2.0055582568        2.5341509989
 H          2.0271495709       -3.3332543062        1.5238602816
 H          2.1105014340       -4.5553725558        0.0679909517
 H          2.3749091679       -5.1847433041       -1.5433752534
 H          1.0571339545       -3.2223559781       -1.7546633270
 H          2.6355882360       -2.9294718463       -2.4630729913
 O          1.9376785262       -0.7843566368       -1.6995827297
 C          1.8349206481        0.5489288443       -1.3455915664
 O          1.5740420314        1.3143373213       -2.2939352464
 O          2.4856776778        0.2053541068        2.1926180775
 C          1.8623689229        2.3390894597        0.4046839665
 C          0.4614962420        2.8037824982        0.0817341256
 C          0.1644095594        4.1096204501       -0.2869964040
 C         -1.1419252674        4.4795010473       -0.5597995684
 C         -2.1720190194        3.5611395607       -0.4862823798
 C         -1.8839425771        2.2487287817       -0.1228696249
 C         -0.5822681642        1.8926893745        0.1834322748
 H         -0.3755984806        0.8774343364        0.4898645231
 N         -2.8994572859        1.2785989523       -0.1065057167
 S         -2.6351972357       -0.2799744190        0.4516047199
 O         -2.3179017855       -0.2789512642        1.8645765451
 O         -1.6935619127       -0.9397487282       -0.4187591608
 C         -4.2633942281       -0.9607598477        0.1985620176
 C         -5.0943876813       -1.1851324761        1.2792856735
 C         -6.3631680203       -1.6970308432        1.0547769199
 C         -6.7774608123       -1.9721357549       -0.2394584308
 C         -5.9315798446       -1.7426103919       -1.3148809496
 C         -4.6619753592       -1.2323223853       -1.0969853051
 H         -3.9659774639       -1.0455758133       -1.8985813285
 H         -6.2557377343       -1.9595987969       -2.3199001593
 H         -7.7647634919       -2.3704481402       -0.4118299395
 H         -7.0214057461       -1.8793897409        1.8888046157
 H         -4.7253107950       -0.9614448692        2.2672408013
 H         -3.8159580462        1.6347637458        0.1214430800
 H         -3.1863728552        3.8472440216       -0.7162984119
 H         -1.3590438631        5.4986078563       -0.8416704737
 H          0.9562329604        4.8369303888       -0.3630775719
 H          1.9814829956        2.3470345949        1.4996438623
 C          2.9351102241        3.2155516319       -0.2097639354
 C          3.4688821282        4.4025750131        0.5336740685
 C          4.3166412275        3.1783388062        0.3696982235
 H          5.1596828819        3.2163930313       -0.3035635431
 H          4.4729333191        2.5435419700        1.2299241902
 H          3.7342298320        5.2853592216       -0.0282995573
 H          3.0608860603        4.6052170857        1.5124964749
 H          2.8453893042        3.2806786049       -1.2883280041
