  62
        -98.93571883
 C          1.7760125299        0.6581856900        0.2478841785
 C          2.5228273398       -0.2151390600        1.0925497287
 C          3.9828543798       -0.1747142403        0.9767655884
 C          4.5560895098        0.6812211894        0.1133184381
 C          6.0318674598        0.8830331590       -0.0964682522
 C          6.6715552195       -0.1267577014       -1.0588458220
 C          6.8240537393       -1.5443709912       -0.5062111216
 H          7.4782024391       -2.0870083116       -1.1915627016
 H          7.3272027795       -1.5045215411        0.4604376283
 C          5.5037488392       -2.3158489609       -0.3701316912
 H          4.7310655292       -1.8253079510       -0.9666940312
 H          5.6268851589       -3.3232478211       -0.7741869110
 C          4.9994397994       -2.4632731204        1.0656275489
 H          4.0423347292       -2.9909427503        1.0402808292
 H          5.7025425993       -3.0700371204        1.6407488990
 C          4.7875381597       -1.1335101202        1.8009375486
 H          5.7489332499       -0.6926180203        2.0647085183
 H          4.2297711598       -1.3339074898        2.7190450287
 H          6.0821696994       -0.1557564615       -1.9781458119
 H          7.6650858295        0.2500414284       -1.3125143822
 H          6.1518743100        1.8835307489       -0.5177777525
 H          6.5454606600        0.8465290492        0.8648383078
 O          3.8208748499        1.5011295993       -0.6757289720
 C          2.4298643999        1.5007882096       -0.6555249418
 O          1.9489628899        2.2912796995       -1.4891012819
 O          1.9867997198       -0.9973013796        1.9242164690
 C          0.2718314199        0.5835294303        0.4421727388
 C         -0.5315129004       -0.0120769698       -0.6924524809
 C         -0.3043074806        0.2745041998       -2.0328383310
 C         -1.1077625108       -0.2793397804       -3.0143942008
 C         -2.1705154109       -1.0997201501       -2.6832570904
 C         -2.4169591308       -1.3814537996       -1.3448381303
 C         -1.5920878405       -0.8489779495       -0.3648142605
 H         -1.7789857304       -1.1060771992        0.6673473295
 N         -3.5002852709       -2.1879196293       -0.9655294599
 S         -4.3668009406       -1.7852096688        0.4043383501
 O         -3.6931308105       -2.2677806086        1.5836546202
 O         -5.6882692107       -2.3275252886        0.1711441305
 C         -4.4325715302       -0.0006736488        0.4284051996
 C         -4.8569587603        0.6659023610       -0.7042831905
 C         -4.9056171200        2.0500024910       -0.6891621508
 C         -4.5399720597        2.7422549113        0.4550725189
 C         -4.1272241897        2.0591873615        1.5879213090
 C         -4.0686741099        0.6742196315        1.5752543094
 H         -3.7406516599        0.1050127217        2.4309060295
 H         -3.8455772794        2.5984225117        2.4785864588
 H         -4.5779525295        3.8201968113        0.4650197386
 H         -5.2264766600        2.5847032409       -1.5684461509
 H         -5.1452224505        0.1035127808       -1.5771688603
 H         -4.1009200411       -2.4807254794       -1.7219682497
 H         -2.8013116611       -1.5224003301       -3.4503447302
 H         -0.9097023109       -0.0553669707       -4.0516376909
 H          0.4991209495        0.9384451995       -2.3049571813
 H          0.1772291799       -0.1223877194        1.2832030290
 C         -0.4452297498        1.8514766906        0.9060632585
 C          0.2697674205        3.0432490906        1.4620511281
 C         -0.4542226997        3.1448218204        0.1530051082
 H         -1.3794549296        3.7006904306        0.1182618282
 H          0.1433970802        3.2117412100       -0.7405103019
 H         -0.1417047893        3.5332376109        2.3319629480
 H          1.3502487505        3.0352225104        1.4351288480
 H         -1.3826035198        1.5939576409        1.3915023488
