  62
        -98.94185687
 C         -2.7797451173       -0.3175346801       -0.2483925049
 C         -2.0620373887        0.5206836622       -1.1361771772
 C         -2.0891911900        1.9585596608       -0.8304639796
 C         -2.7930714668        2.4027372869        0.2249931445
 C         -2.8677043501        3.8330199428        0.6725185797
 C         -1.7882316552        4.1527296745        1.7156172014
 C         -0.3812818579        3.7042139337        1.3183872462
 H          0.2980803839        4.0320441626        2.1088280623
 H         -0.3341217653        2.6120330528        1.2998061175
 C          0.1068351505        4.2486596510       -0.0310207365
 H         -0.4881033437        5.1161338439       -0.3207710237
 H          1.1394669083        4.5842054925        0.0851135064
 C          0.0964918727        3.2182708086       -1.1619489297
 H          0.5746674917        2.2996752585       -0.8098549417
 H          0.6932340749        3.6125438808       -1.9893326668
 C         -1.2876780573        2.8640963261       -1.7222628711
 H         -1.8409569561        3.7787046201       -1.9452106721
 H         -1.1414029173        2.3137539296       -2.6562012328
 H         -1.7897750192        5.2302827557        1.8916205702
 H         -2.0520294941        3.6549280124        2.6517265636
 H         -2.7560263038        4.4842573091       -0.1921871300
 H         -3.8497067783        4.0008324415        1.1184870174
 O         -3.5016021545        1.5756215748        1.0353622774
 C         -3.4843207676        0.2067657188        0.8404971721
 O         -4.1420005973       -0.4353075754        1.6845964977
 H         -0.2499856536       -1.4047433748       -1.1579233105
 C         -0.2834413889       -2.0082948891       -0.2630361715
 C         -1.5127019707       -2.3611326199        0.2751574266
 C         -1.5306446299       -3.1245061852        1.4362673930
 C         -0.3488064423       -3.5058353428        2.0491825219
 C          0.8737199826       -3.1166235470        1.5300963542
 C          0.8978419547       -2.3586352783        0.3683153478
 N          2.1410838559       -1.8800851116       -0.1315102225
 S          2.6296945471       -0.5308058291        0.7763954493
 O          2.9269609589       -0.9839123842        2.1119966905
 O          1.6509305600        0.5291978464        0.6680998701
 C          4.1367060284       -0.0752613808       -0.0589311705
 C          5.2671044184       -0.8377467436        0.1646808748
 C          6.4353817979       -0.5142544802       -0.5061577486
 C          6.4527732581        0.5589844452       -1.3849396821
 C          5.3097841497        1.3141631969       -1.5989265108
 C          4.1369904312        0.9947363826       -0.9322202933
 H          3.2256941187        1.5566180693       -1.0646646650
 H          5.3256615925        2.1487119151       -2.2813644111
 H          7.3633206344        0.8097760144       -1.9058119327
 H          7.3266783309       -1.0981311522       -0.3424377263
 H          5.2061952037       -1.6566787550        0.8618316450
 H          2.0266990108       -1.5606395879       -1.0873037872
 H          1.7995355406       -3.3635668523        2.0231323738
 H         -0.3809984382       -4.0949370162        2.9533342753
 H         -2.4807007141       -3.3929251198        1.8756361031
 C         -2.7859960995       -1.8382667317       -0.3463512562
 H         -3.6272469792       -2.1750073508        0.2739804559
 C         -2.9866888541       -2.3624200353       -1.7537115219
 C         -3.4859153185       -3.7627325762       -1.9387749190
 C         -4.3784092032       -2.6006675860       -2.2533316657
 H         -4.5982060678       -2.3803479775       -3.2870324928
 H         -5.1944786393       -2.3860763562       -1.5785046021
 H         -3.0919758503       -4.3449825546       -2.7574084337
 H         -3.6991236812       -4.3388736828       -1.0510653854
 H         -2.2629814168       -1.9856479110       -2.4636279397
 O         -1.4206608619        0.1166203364       -2.1444619069
