  62
        -98.94329407
 C          2.5129572594        1.0421468538       -0.1412829140
 C          3.6471176235        0.8689031100        0.6883274738
 C          4.6948761583       -0.0125990998        0.1626524924
 C          4.5428663419       -0.5817137702       -1.0471981632
 C          5.5333555059       -1.4859905791       -1.7294144498
 C          5.4358126096       -2.9562169332       -1.2995122364
 C          5.9569367965       -3.2592796051        0.1058572253
 H          6.0307515284       -4.3451243040        0.1926765703
 H          6.9639874196       -2.8552472643        0.2139822545
 C          5.0646651847       -2.7335613922        1.2389814826
 H          4.0728744995       -2.5015608493        0.8437788804
 H          4.9339705777       -3.5141814223        1.9918060626
 C          5.6127408982       -1.5000370512        1.9567260381
 H          6.5422987873       -1.7568678146        2.4695281182
 H          4.8859231766       -1.1918283674        2.7127378739
 C          5.8774938101       -0.3002391981        1.0376473394
 H          6.7655827384       -0.4788522955        0.4319468177
 H          6.0504448160        0.5791922833        1.6628648264
 H          6.0176895831       -3.5433671238       -2.0137034503
 H          4.3937319938       -3.2743969284       -1.3783572876
 H          5.3228533100       -1.4257722140       -2.7993229367
 H          6.5453732361       -1.1203972317       -1.5532428253
 O          3.4439096841       -0.3769056622       -1.8208612813
 C          2.3946049009        0.4188369316       -1.3833705602
 O          1.4423492914        0.4941223260       -2.1827131991
 O          3.7764239083        1.4241346563        1.8122511286
 C          1.3790059025        1.9252210341        0.3488281299
 C          0.1278280327        1.0967133236        0.5033289948
 C          0.1472000633        0.0238032103        1.3917924998
 C         -0.9674966491       -0.7728415859        1.5637433219
 C         -2.1278274499       -0.5208209428        0.8515231732
 C         -2.1611624570        0.5489185086       -0.0309746639
 C         -1.0398089796        1.3540955069       -0.1955808380
 H         -1.0825728539        2.1795142643       -0.8888515081
 N         -3.3300819329        0.8026969848       -0.7657971555
 S         -4.8040339626        0.8282306084        0.0312737188
 O         -5.6661528935        1.6434632336       -0.7963170784
 O         -4.6549954264        1.2452232570        1.4062790200
 C         -5.3637279700       -0.8606037538       -0.0378367475
 C         -5.4214046081       -1.4789200661       -1.2714215466
 C         -5.8673742411       -2.7889092383       -1.3426762033
 C         -6.2486956158       -3.4537951712       -0.1866314649
 C         -6.1881383983       -2.8179939435        1.0438980519
 C         -5.7420958699       -1.5077630725        1.1220954624
 H         -5.6726116823       -0.9753854045        2.0573822429
 H         -6.4850064913       -3.3365282977        1.9414290216
 H         -6.5952616240       -4.4734967464       -0.2455648844
 H         -5.9152499016       -3.2868139749       -2.2977997214
 H         -5.1179834106       -0.9283773948       -2.1463049371
 H         -3.2496014221        1.5700450837       -1.4166007381
 H         -3.0001963112       -1.1411377881        0.9765928207
 H         -0.9349388171       -1.6007708985        2.2557462190
 H          1.0546377018       -0.1751890070        1.9457432427
 H          1.6865870117        2.2633991841        1.3491793067
 C          1.2157784069        3.1370095526       -0.5430802322
 C          0.5531163290        4.3722153276       -0.0122420244
 C          2.0309464948        4.3616483752       -0.2603949164
 H          2.4186262828        4.9266444884       -1.0947695695
 H          2.6937974988        4.3317837241        0.5918660998
 H         -0.0739476040        4.9492103066       -0.6754149648
 H          0.2091717597        4.3533589655        1.0110192545
 H          1.0556900086        2.8757559413       -1.5831319752
