  62
        -98.94499431
 C         -2.4503945478       -1.1887326013       -0.0823541581
 C         -3.2720266284       -0.5115052389        0.8576813873
 C         -3.9335004541        0.7078842133        0.3852187122
 C         -3.7520229424        1.1131077758       -0.8843877766
 C         -4.3615967453        2.3316723303       -1.5220348775
 C         -3.5815253810        3.6261980467       -1.2539309622
 C         -3.7012549066        4.1746849358        0.1686128611
 H         -3.2951285152        5.1880439756        0.1549169240
 H         -4.7546247299        4.2487630194        0.4407622094
 C         -2.9492974071        3.3575923123        1.2287696673
 H         -2.2156029702        2.7111877375        0.7397413931
 H         -2.3899257781        4.0338686702        1.8792440731
 C         -3.8458320304        2.5047706447        2.1270000659
 H         -4.4877151439        3.1549253335        2.7254418892
 H         -3.2057233807        1.9401046795        2.8094527794
 C         -4.7316010589        1.5050367328        1.3721640878
 H         -5.1558575156        0.8070507471        2.0978367959
 H         -5.5453517848        2.0271006193        0.8696708470
 H         -2.5281781468        3.4551165712       -1.4907853774
 H         -3.9585072658        4.3832374972       -1.9456049218
 H         -4.3675612141        2.1498597486       -2.5989193695
 H         -5.3911161878        2.4481735299       -1.1824779350
 O         -2.9801187733        0.4240623597       -1.7640839059
 C         -2.2878050536       -0.7174515403       -1.3849997451
 O         -1.5965261025       -1.2012788060       -2.3051696229
 H          0.3258199807       -1.9228989328       -1.3143739109
 C          0.6280873830       -1.7821187750       -0.2874198146
 C         -0.2848226430       -2.0134901479        0.7321739840
 C          0.1130533989       -1.7818812946        2.0444240776
 C          1.3902077170       -1.3298268120        2.3256549781
 C          2.2911590154       -1.0854365236        1.3042774552
 C          1.8983500320       -1.3025784256       -0.0094726687
 N          2.7972700271       -1.0029683075       -1.0588559873
 S          3.1529256794        0.6387327177       -1.2078401295
 O          2.0640026092        1.4613414373       -0.7287294342
 O          3.5472609365        0.8288951655       -2.5869270162
 C          4.5805042617        0.8481111618       -0.1637172900
 C          4.5207141940        1.6964294402        0.9243591997
 C          5.6441403836        1.8402406710        1.7239342907
 C          6.8004223158        1.1368850918        1.4226982979
 C          6.8447945781        0.2905894117        0.3245115127
 C          5.7259040105        0.1434334642       -0.4795949161
 H          5.7174761989       -0.4982574422       -1.3446813897
 H          7.7459381542       -0.2540199651        0.0932000233
 H          7.6721998133        1.2493813430        2.0476926993
 H          5.6112290469        2.4979501279        2.5776432135
 H          3.5972877373        2.2171784741        1.1217470009
 H          2.4667075541       -1.3423331370       -1.9526915932
 H          3.2837387410       -0.7209623234        1.5135343184
 H          1.6845548967       -1.1572899786        3.3496085802
 H         -0.5985091031       -1.9373343718        2.8425641555
 C         -1.7060028122       -2.4166245395        0.4209625427
 H         -2.1962492585       -2.6801884899        1.3675897317
 C         -1.7899319273       -3.6067021393       -0.5114773089
 C         -1.4740201627       -4.9698364775        0.0251061804
 C         -2.8869274715       -4.6089445314       -0.3194668992
 H         -3.3362930633       -5.0524579256       -1.1952720887
 H         -3.5827788658       -4.4396421322        0.4891681223
 H         -0.9503763263       -5.6652261024       -0.6126310132
 H         -1.2111175513       -5.0454124517        1.0692805855
 H         -1.4994334350       -3.3847866382       -1.5299548221
 O         -3.4467700580       -0.9144188130        2.0378449711
