  62
        -98.94419844
 C          1.9860005895        1.3005785209        0.0238642512
 C          2.3181679500        0.3283829416       -0.9505075493
 C          3.7291823100       -0.0861604782       -0.9868658591
 C          4.6057664497        0.4653377514       -0.1286881584
 C          6.0560482197        0.0945728516       -0.0240235882
 C          6.2703736395       -1.0247619691        1.0044593211
 C          5.3260011498       -2.2142369391        0.8296786100
 H          4.3027533897       -1.8923728494        1.0376987699
 H          5.5896657396       -2.9530929896        1.5895988696
 C          5.3783802904       -2.8682479282       -0.5581685904
 H          5.4041629705       -3.9528031683       -0.4328393311
 H          6.2975541005       -2.5796833777       -1.0694752299
 C          4.1794677106       -2.5524830678       -1.4545396906
 H          3.2524014404       -2.7528192683       -0.9108114110
 H          4.2083787010       -3.2308226672       -2.3115684010
 C          4.1166884405       -1.1219145274       -2.0044886097
 H          3.3373104208       -1.0955267770       -2.7716787199
 H          5.0688464807       -0.8657340570       -2.4733877692
 H          6.1171879591       -0.6110308098        2.0038449213
 H          7.3047424496       -1.3658775889        0.9329850612
 H          6.4168285401       -0.2213841077       -1.0008781483
 H          6.6147595794        0.9772873215        0.2915864926
 O          4.2520406492        1.4026967807        0.7866832621
 C          2.9402412891        1.8276892005        0.8987210019
 O          2.7500729887        2.6712907798        1.7971389924
 H         -0.9613341799       -0.0833505489       -1.0818929007
 C         -0.9920225103       -0.1881869296       -0.0090114207
 C         -0.2718244307        0.6882391500        0.7883439701
 C         -0.3033181311        0.5118456491        2.1683793100
 C         -1.0394854711       -0.5130358414        2.7344288390
 C         -1.7539050407       -1.3888982910        1.9351264482
 C         -1.7178243903       -1.2272428001        0.5571137883
 N         -2.4474925999       -2.1164224096       -0.2635231125
 S         -4.1129492299       -2.0351345600       -0.1014653530
 O         -4.4848435203       -2.5592179509        1.1879421465
 O         -4.6561623894       -2.7186524893       -1.2530107736
 C         -4.4758277602       -0.2909632300       -0.1830573120
 C         -4.4858591907        0.4523364692        0.9799787185
 C         -4.6782024409        1.8219848592        0.8957912794
 C         -4.8548330306        2.4211524100       -0.3416210003
 C         -4.8448499101        1.6596645008       -1.5001965008
 C         -4.6464698499        0.2908348608       -1.4233810216
 H         -4.6348788395       -0.3378637386       -2.2994271120
 H         -4.9867751398        2.1282317014       -2.4609615205
 H         -5.0012230607        3.4879770100       -0.4039251596
 H         -4.6862584913        2.4164723186        1.7952092898
 H         -4.3495170409       -0.0508055814        1.9230273582
 H         -2.1979581696       -2.0364190290       -1.2396163524
 H         -2.3424037807       -2.1881233314        2.3562106675
 H         -1.0566549315       -0.6333230121        3.8071532589
 H          0.2657949686        1.1869418788        2.7924674306
 C          0.5601854593        1.8007825605        0.1992410811
 H          0.6178760990        2.6068571901        0.9422635017
 C         -0.0183586103        2.3617583313       -1.0839833987
 C         -1.3092637805        3.1205426310       -1.0250806486
 C         -0.0259262705        3.8435800714       -1.3007024777
 H          0.1527187498        4.2179251921       -2.2975816674
 H          0.3895983892        4.4654320910       -0.5212844572
 H         -1.7668563908        3.2458444203       -0.0554728487
 H         -2.0169451002        2.9986706115       -1.8304312290
 H          0.1637629901        1.7377244019       -1.9494085791
 O          1.4935621403       -0.1718538380       -1.7601607999
