  62
        -98.93905698
 C         -1.7118433099       -0.8604519792        0.1367752109
 C         -3.0107882713       -1.1514200237        0.6160636223
 C         -3.9785299720       -0.0450262639        0.5743497508
 C         -3.5811050458        1.1555525220        0.1144523749
 C         -4.4666997098        2.3558529807       -0.0642794277
 C         -5.3185222726        2.1951717028       -1.3397475370
 C         -6.8210983441        2.0758324540       -1.0838547255
 H         -7.2193424692        3.0632150182       -0.8408568142
 H         -7.2870551399        1.7537371665       -2.0176064398
 C         -7.2339603162        1.1160735906        0.0363367284
 H         -7.1018975618        1.6025084126        1.0039303457
 H         -8.3051646027        0.9367464905       -0.0777396695
 C         -6.5090988772       -0.2358029274        0.0636899143
 H         -6.1290039742       -0.4891653858       -0.9263084292
 H         -7.2361135451       -1.0055115428        0.3307942540
 C         -5.3630372762       -0.3275756738        1.0885780859
 H         -5.5792012348        0.3270114905        1.9374513159
 H         -5.3159480557       -1.3525725159        1.4682733426
 H         -5.1512527385        3.0481864003       -1.9991504619
 H         -4.9681467945        1.3109334534       -1.8765121067
 H         -5.1039706981        2.4765719643        0.8088555989
 H         -3.8189117416        3.2285514701       -0.1481319747
 O         -2.3181014983        1.4000491972       -0.3220413088
 C         -1.3538582238        0.4031790769       -0.3294513412
 O         -0.2438810749        0.7656449432       -0.7609577940
 H          2.0094184523       -1.9071687246       -0.6039019061
 C          1.8281239064       -1.5812036000        0.4060185715
 C          0.5428161479       -1.5413606228        0.9218323592
 C          0.3647346251       -1.1092000663        2.2346623464
 C          1.4423486023       -0.7166927198        3.0034716183
 C          2.7229932264       -0.7388114021        2.4773077271
 C          2.9128832617       -1.1730192834        1.1722123606
 N          4.2045875148       -1.2324303222        0.6137614340
 S          4.5334917945       -0.3853709231       -0.7935459197
 O          3.6868428723       -0.8532750675       -1.8589095210
 O          5.9578254655       -0.5468092740       -0.9919936961
 C          4.1835133472        1.3158710962       -0.3861645725
 C          5.2398130182        2.1368485451       -0.0384944928
 C          4.9804140538        3.4431732484        0.3411361989
 C          3.6720939964        3.9024774596        0.3770953739
 C          2.6246411880        3.0639135415        0.0301451152
 C          2.8754148830        1.7556386120       -0.3561543199
 H          2.0659797277        1.0974861764       -0.6305462599
 H          1.6028283280        3.4084475657        0.0547581580
 H          3.4667085690        4.9186216051        0.6754131370
 H          5.7948336222        4.0968656107        0.6090829591
 H          6.2401054032        1.7372404529       -0.0848568059
 H          4.9421107587       -1.0571656101        1.2825048830
 H          3.5672379739       -0.4270955488        3.0735584729
 H          1.2859837572       -0.3845384284        4.0186447762
 H         -0.6368203940       -1.0853794959        2.6424838581
 C         -0.6672540332       -1.9615003350        0.1259270283
 H         -1.1359894542       -2.8144908765        0.6391072238
 C         -0.3477260883       -2.3695107981       -1.2967952737
 C          0.1310342999       -3.7584701513       -1.5917894468
 C         -1.2501581790       -3.3400836488       -1.9952554549
 H         -1.4591598531       -3.1878243577       -3.0436222222
 H         -2.0874837852       -3.7294171993       -1.4344975243
 H          0.8755907873       -3.8913887799       -2.3624612591
 H          0.2320175592       -4.4391938498       -0.7600015919
 H          0.0611795425       -1.5560576715       -1.8870513958
 O         -3.3428515804       -2.2821862350        1.0637594654
