  62
        -98.94043454
 C         -2.0514443399       -0.4500832939        0.1088474607
 C         -2.7269119686        0.7258941877        0.5262698074
 C         -4.0702473093        0.9365716681       -0.0214503065
 C         -4.5779662690        0.0477193702       -0.8942358087
 C         -5.9202680416        0.1340536856       -1.5686053451
 C         -7.0815025090       -0.4055394724       -0.7225763485
 C         -7.4920324053        0.4772872083        0.4566108404
 H         -7.6636572306        1.4949752637        0.1044932949
 H         -8.4458637037        0.0954124732        0.8260939334
 C         -6.4853856404        0.4942632837        1.6154255933
 H         -5.8044189817       -0.3544374627        1.5186606680
 H         -7.0172702745        0.3714332338        2.5616136691
 C         -5.6623016879        1.7781263666        1.7221713903
 H         -4.9600800386        1.6670443389        2.5523498387
 H         -6.3218507411        2.6185817041        1.9498108653
 C         -4.8553043043        2.1182753055        0.4622297118
 H         -5.5189324760        2.4811239513       -0.3226181648
 H         -4.1442442041        2.9094880039        0.7126913625
 H         -7.9436253191       -0.5141183615       -1.3847084348
 H         -6.8155606162       -1.4003758007       -0.3579332401
 H         -6.1227928857        1.1681506526       -1.8492226903
 H         -5.8497287830       -0.4657214007       -2.4786129573
 O         -3.8926777089       -1.0549369571       -1.2900504359
 C         -2.6227421992       -1.3433371066       -0.7988451702
 O         -2.1436940487       -2.3975743020       -1.2525326554
 O         -2.2248962724        1.5602742814        1.3272486886
 C         -0.6673301527       -0.6739163053        0.6904774425
 C          0.3902069411       -0.0613591923       -0.1913638039
 C          0.4509835547       -0.3493688187       -1.5511776356
 C          1.4364225558        0.2104198620       -2.3439312241
 C          2.3826647823        1.0605828125       -1.7984934015
 C          2.3335749735        1.3503297688       -0.4418798624
 C          1.3406571900        0.7905498314        0.3517975840
 H          1.2972130924        1.0339176775        1.4047650086
 N          3.3196077533        2.1865803318        0.1193797636
 S          4.9031908490        1.6597985092       -0.0656638897
 O          5.6521404737        2.3147765775        0.9822535292
 O          5.3362544215        1.9164935155       -1.4151443529
 C          4.8013974180       -0.0960037834        0.2283554218
 C          4.6982601120       -0.5331137122        1.5343292921
 C          4.5135945438       -1.8844978944        1.7765454908
 C          4.4219474020       -2.7697539864        0.7132089366
 C          4.5316344531       -2.3155964375       -0.5915259588
 C          4.7229269169       -0.9657950401       -0.8403916467
 H          4.8158402924       -0.5745045843       -1.8399069831
 H          4.4614768548       -3.0068700075       -1.4158558686
 H          4.2611517015       -3.8187919021        0.9032782896
 H          4.4324506416       -2.2425109337        2.7903280460
 H          4.7758060439        0.1860735560        2.3342617430
 H          3.1429450502        2.4208405239        1.0860828874
 H          3.1608270661        1.5012105515       -2.4006144397
 H          1.4692143281       -0.0187836765       -3.3983182526
 H         -0.2793292630       -1.0211040769       -1.9763156145
 H         -0.6721442667       -0.1090616249        1.6363357032
 C         -0.3736102710       -2.1286848458        1.0324666929
 C          0.6628137160       -2.9527926250        0.3346123587
 C          0.9036197519       -2.4830817982        1.7355039002
 H          0.8694212444       -3.2016722397        2.5398672167
 H          1.6273965567       -1.6938193416        1.8746746482
 H          0.4358418886       -3.9936795234        0.1637652453
 H          1.2327649790       -2.4959074987       -0.4588182298
 H         -1.2667530218       -2.6555585008        1.3516819943
