  62
        -98.94938156
 C          1.5358478607        1.4140463607       -0.2880739514
 C          2.7084552208        0.8755465606        0.2886168983
 C          3.1481202204       -0.4174250295       -0.2470127615
 C          2.4347833300       -1.0146860097       -1.2185260911
 C          2.7363278696       -2.3477403599       -1.8473281609
 C          2.2169757598       -3.5396747496       -1.0308082904
 C          3.0255941602       -3.8662271594        0.2254456993
 H          2.7125069002       -4.8581273293        0.5577912197
 H          4.0857083401       -3.9243120996       -0.0256600711
 C          2.8177881007       -2.8773977191        1.3810825392
 H          1.8934097308       -2.3171757290        1.2188805594
 H          2.6834056110       -3.4330176289        2.3128016394
 C          3.9740513909       -1.9015918392        1.6027443185
 H          4.8594887210       -2.4533521092        1.9284274383
 H          3.6906554413       -1.2158210290        2.4055459184
 C          4.3494105106       -1.0640283795        0.3739015682
 H          4.8679907002       -1.6833292798       -0.3579295619
 H          5.0232551408       -0.2669621196        0.6991820677
 H          2.2275535394       -4.4153772998       -1.6843550202
 H          1.1797754499       -3.3471326894       -0.7430752701
 H          2.2427997892       -2.3533056600       -2.8217034407
 H          3.8109242495       -2.4506871600       -2.0016683413
 O          1.3281546299       -0.4494294897       -1.7689086809
 C          0.8384629502        0.7638786605       -1.3054856110
 O         -0.1983310300        1.1517648005       -1.8760037707
 O          3.3536474912        1.4457346908        1.2110082879
 C          0.9503125510        2.6974611209        0.2680305985
 C         -0.4726346388        2.4583020211        0.7136141291
 C         -1.4792136488        3.4071805712        0.5821771093
 C         -2.7713143886        3.1217097815        0.9886745198
 C         -3.0926934286        1.8831888817        1.5132811202
 C         -2.0903655187        0.9318426216        1.6596400501
 C         -0.7921257688        1.2342706413        1.2870055195
 H         -0.0273829888        0.4826670913        1.4162382694
 N         -2.3615108386       -0.3501778683        2.1801127905
 S         -1.9612860192       -1.6738770485        1.2361609007
 O         -2.6052989791       -2.7910868183        1.8971548612
 O         -0.5332885592       -1.7716816988        1.0817539802
 C         -2.7489400297       -1.3992154188       -0.3400717391
 C         -4.1187501597       -1.2167259186       -0.3613381586
 C         -4.7469177001       -0.9908364689       -1.5740803784
 C         -3.9984064506       -0.9526516792       -2.7412932487
 C         -2.6278218306       -1.1495919794       -2.7046097692
 C         -1.9943437001       -1.3752358892       -1.4926108394
 H         -0.9282709201       -1.5183905093       -1.4276789698
 H         -2.0403246309       -1.1165272597       -3.6078600694
 H         -4.4862771109       -0.7712019394       -3.6860229486
 H         -5.8144379801       -0.8434222987       -1.6070375881
 H         -4.6734978694       -1.2699919084        0.5616115716
 H         -3.3023076285       -0.4576614381        2.5330593909
 H         -4.1051831285        1.6535684919        1.8087169107
 H         -3.5424167186        3.8688070616        0.8788230099
 H         -1.2521814788        4.3700981711        0.1544016190
 H          1.5582640414        2.9431337410        1.1521871782
 C          1.0766205708        3.8233264806       -0.7385087118
 C          1.2907586811        5.2348060707       -0.2815166422
 C          2.4118994708        4.4772629304       -0.9248562424
 H          2.7178638405        4.7510237401       -1.9233564726
 H          3.2220529410        4.1298606904       -0.3002750827
 H          0.8282395710        6.0335902606       -0.8415097322
 H          1.3486021116        5.4145218409        0.7814311577
 H          0.4731789304        3.6547601205       -1.6234922715
