  62
        -98.94030628
 C         -1.6068936900       -1.4698934499       -0.0143438894
 C         -2.7692898896       -0.9119118201        0.5662633414
 C         -3.3164545300        0.3104326901       -0.0524196078
 C         -2.6700535107        0.8453222704       -1.1047560281
 C         -2.9980969711        2.1035758206       -1.8640416475
 C         -2.5926377007        3.3699137304       -1.0954500273
 C         -3.0002882898        3.3822006399        0.3750982429
 H         -2.5227642595        2.5401164598        0.8806820524
 H         -2.5911221696        4.2920427298        0.8231254929
 C         -4.5046890397        3.3638907598        0.6388268238
 H         -4.9639615600        4.2213702000        0.1419520543
 H         -4.6430034490        3.4910063395        1.7155935439
 C         -5.2498072099        2.0957805999        0.2136410439
 H         -6.2262722696        2.1128675798        0.7064337444
 H         -5.4441760105        2.0912508103       -0.8556177760
 C         -4.5746592996        0.7927853498        0.6287264030
 H         -4.3422227490        0.8340014295        1.6993016829
 H         -5.2982020197       -0.0250933802        0.5236546232
 H         -1.5030984107        3.4539896204       -1.1318249380
 H         -3.0203555810        4.2359433405       -1.6042974868
 H         -4.0531246013        2.1276586207       -2.1201297069
 H         -2.4276280117        2.0658464409       -2.7948383378
 O         -1.5388453609        0.2878126506       -1.6181392289
 C         -0.9633166806       -0.8481213896       -1.0835536196
 O          0.0892964191       -1.1977697094       -1.6521230403
 O         -3.3328346190       -1.4098047904        1.5800988816
 C         -0.9950323795       -2.6924942301        0.6462283798
 C          0.4828452106       -2.4659455601        0.8476290190
 C          1.4705795404       -3.3650422700        0.4678142082
 C          2.8077699205       -3.0648125400        0.6670379675
 C          3.1888022108       -1.8559945902        1.2190865476
 C          2.2067669110       -0.9494243303        1.6015171985
 C          0.8705463409       -1.2724746103        1.4456374192
 H          0.1205726411       -0.5558894604        1.7495413998
 N          2.5313822713        0.3196131395        2.1305922187
 S          2.1509122907        1.6332996198        1.1555765993
 O          2.5858713911        2.7960370396        1.9011989294
 O          0.7578784305        1.5913830199        0.7961859601
 C          3.2038861998        1.4254767402       -0.2700863014
 C          2.8482940193        0.5241001005       -1.2532370114
 C          3.7251590586        0.3127961709       -2.3074517120
 C          4.9298479886        0.9961999409       -2.3598464825
 C          5.2702362492        1.8988678306       -1.3631474625
 C          4.4031239298        2.1123200603       -0.3045061819
 H          4.6222761803        2.8044392500        0.4926392982
 H          6.2062543691        2.4321780007       -1.4062081328
 H          5.6058966581        0.8242165312       -3.1825965130
 H          3.4529585682       -0.3908974489       -3.0777603321
 H          1.9032559393        0.0049326605       -1.1998574610
 H          3.4977280314        0.4012241994        2.4184743681
 H          4.2322138108       -1.6091843102        1.3467824871
 H          3.5637176803       -3.7738882499        0.3661032568
 H          1.1971578301       -4.2942513199       -0.0042767920
 H         -1.4698991890       -2.7283834604        1.6419420601
 C         -1.3229231999       -4.0112201999       -0.0379473204
 C         -2.5295918104       -4.1481797997       -0.9162781597
 C         -1.1577283208       -4.2039908595       -1.5147002305
 H         -0.7942268410       -5.1569760593       -1.8702615610
 H         -0.8122463712       -3.3594193993       -2.0894875005
 H         -3.1057205004       -5.0594195397       -0.8561518996
 H         -3.1270939706       -3.2642957496       -1.0877996391
 H         -1.0956521895       -4.8644108601        0.5937969792
