  62
        -98.93467847
 C          2.2161429907        0.9832781165       -0.1281488086
 C          2.9393578886        0.4118786950        0.9502893985
 C          3.7679643365       -0.7670445129        0.6519085268
 C          3.7862183359       -1.2547503081       -0.5998460667
 C          4.5174528974       -2.4618140508       -1.1324617904
 C          5.9560595040       -2.6892228742       -0.6501896877
 C          6.7630891510       -1.4078948135       -0.3946144124
 H          7.7131281818       -1.4745233511       -0.9278784571
 H          6.2270181350       -0.5436059640       -0.7904478722
 C          7.0706172236       -1.1820101296        1.0875404966
 H          7.3698606070       -2.1336968363        1.5318887630
 H          7.9209662206       -0.5008847916        1.1699695229
 C          5.9300136465       -0.5830753030        1.9095367760
 H          6.2363462224       -0.5805049946        2.9582453588
 H          5.7715699718        0.4591733653        1.6198212633
 C          4.5786933616       -1.3075436035        1.7946844467
 H          4.0031445558       -1.0918866357        2.6989990226
 H          4.7125240085       -2.3839329470        1.7187897965
 H          5.9450177713       -3.2899625939        0.2580578251
 H          6.4532134736       -3.2872986483       -1.4158431019
 H          4.5102952125       -2.3413431074       -2.2186677399
 H          3.9179170887       -3.3483237298       -0.9044022592
 O          3.0616277167       -0.6885482085       -1.6045514414
 C          2.2640564437        0.4309109219       -1.4068806277
 O          1.6748050983        0.8059463453       -2.4390041567
 O          2.8935451224        0.8729001038        2.1216701902
 C          1.3811920892        2.2128043159        0.1883549381
 C         -0.0433650246        1.8245377333        0.4911743139
 C         -0.6472146899        2.1828694514        1.6901443003
 C         -1.9476876337        1.7966710138        1.9661224502
 C         -2.6711042545        1.0498975687        1.0537157581
 C         -2.0740486874        0.6809128886       -0.1448419870
 C         -0.7712588383        1.0690305379       -0.4186768728
 H         -0.3098059217        0.7773344929       -1.3511486547
 N         -2.8017848712       -0.0773480676       -1.0825584004
 S         -3.4471483684       -1.5333780894       -0.5428681172
 O         -2.6734690664       -2.0808471894        0.5485272960
 O         -3.5712598324       -2.3605063736       -1.7232643265
 C         -5.0746765367       -1.0845356732        0.0236349704
 C         -5.4527633539       -1.3556049251        1.3240086511
 C         -6.7262046203       -0.9979181027        1.7394602141
 C         -7.5935983294       -0.3796123913        0.8519536282
 C         -7.1991160537       -0.1167841686       -0.4516690987
 C         -5.9282448260       -0.4728644436       -0.8737456016
 H         -5.5829282356       -0.2910811000       -1.8778007398
 H         -7.8764150608        0.3639739799       -1.1390092056
 H         -8.5831378855       -0.1009501912        1.1782098911
 H         -7.0346142309       -1.2016623861        2.7522814082
 H         -4.7416045359       -1.8325167552        1.9796505100
 H         -2.2956491280       -0.2226260952       -1.9453624683
 H         -3.6834561238        0.7451437749        1.2630279628
 H         -2.4032623914        2.0796493499        2.9026331879
 H         -0.0837831725        2.7520021323        2.4149068360
 H          1.8180673400        2.6092162852        1.1184393841
 C          1.4983882476        3.3027818477       -0.8691072039
 C          0.3639563027        3.7509080015       -1.7366925464
 C          0.8562061536        4.6386431431       -0.6360499895
 H          1.4067709270        5.5308702564       -0.8924329598
 H          0.2307183751        4.7386640854        0.2382368081
 H          0.5926753881        4.0104250435       -2.7591917873
 H         -0.5956360679        3.2739558769       -1.6154185052
 H          2.4808264198        3.3106848541       -1.3307707037
