  62
        -98.94008013
 C         -2.6085544286       -1.1590319562        0.2912305113
 C         -2.5810479585       -0.3388876306       -0.8641619971
 C         -3.4676246869        0.8359675260       -0.8364176777
 C         -4.2257356927        1.0712955989        0.2488932136
 C         -5.1255240596        2.2588461472        0.4285490584
 C         -4.3847492064        3.4164514361        1.1127572120
 C         -3.0284625963        3.7392706577        0.4850777175
 H         -2.6122749220        4.5892312026        1.0305129972
 H         -2.3520183097        2.8955378362        0.6426535400
 C         -3.0840798003        4.0697731457       -1.0130825360
 H         -2.4636842574        4.9487223554       -1.2000462446
 H         -4.1050005111        4.3276714876       -1.2969427218
 C         -2.5689287529        2.9575047550       -1.9286373381
 H         -2.4485115174        3.3729567065       -2.9325383540
 H         -1.5825183112        2.6295473197       -1.5902039558
 C         -3.4704775054        1.7224446619       -2.0499837700
 H         -4.4873806461        2.0310724302       -2.3002980852
 H         -3.0836853468        1.1099331968       -2.8695639160
 H         -5.0223557417        4.3017012861        1.0805111101
 H         -4.2227937422        3.1527667557        2.1607148027
 H         -5.9694135883        1.9601120590        1.0527412694
 H         -5.4988169488        2.5758346075       -0.5432040527
 O         -4.2138901335        0.2703873524        1.3459056950
 C         -3.3919784823       -0.8436976691        1.4036062688
 O         -3.4415609363       -1.4593828976        2.4880288387
 O         -1.8592203761       -0.5610800931       -1.8688913541
 C         -1.7165153445       -2.3822621760        0.4164665374
 C         -0.3171201318       -2.0462824596       -0.0409811036
 C          0.3768082775       -2.7632784686       -1.0056514136
 C          1.6646540686       -2.3975949199       -1.3581693217
 C          2.2853218192       -1.3145503899       -0.7647259315
 C          1.6016987438       -0.5910126653        0.2040747078
 C          0.3183475201       -0.9682002763        0.5647785361
 H         -0.2132002705       -0.4051376216        1.3241922403
 N          2.2181439163        0.5255089465        0.8000035116
 S          3.7284101408        0.2998608214        1.5004597843
 O          3.8866325053       -1.0507212526        1.9895049472
 O          3.8510287393        1.3557742539        2.4823505072
 C          4.8724984459        0.6063870988        0.1716722303
 C          4.7773904313        1.8051032536       -0.5077525101
 C          5.6681716900        2.0621029944       -1.5376214425
 C          6.6355669606        1.1236968289       -1.8656546597
 C          6.7203928423       -0.0730777387       -1.1708317194
 C          5.8310936222       -0.3374958964       -0.1407423278
 H          5.8535533619       -1.2565950713        0.4226371206
 H          7.4735164498       -0.8007689514       -1.4270102352
 H          7.3274781157        1.3267428117       -2.6677350038
 H          5.6047457133        2.9912407889       -2.0807808651
 H          4.0129701933        2.5077403095       -0.2204118222
 H          1.6136515252        1.0307496812        1.4317644909
 H          3.2838537903       -1.0214643084       -1.0452907639
 H          2.1896972293       -2.9608023510       -2.1145249115
 H         -0.0966109251       -3.5963401726       -1.4982145422
 H         -1.6682220456       -2.5871459793        1.4997284335
 C         -2.2810309543       -3.6377217524       -0.2319375158
 C         -3.7578490821       -3.8151962833       -0.4178375915
 C         -2.8693311602       -3.6327627902       -1.6096331280
 H         -2.6881775488       -4.4863444178       -2.2464262349
 H         -2.8964432591       -2.6920226498       -2.1355016738
 H         -4.1825495229       -4.7906186880       -0.2332259629
 H         -4.4018766092       -2.9979070840       -0.1264901548
 H         -1.7278828600       -4.5253261253        0.0598657800
