  62
        -98.93685754
 C         -2.1396648849       -0.9567111723       -0.0145641637
 C         -2.8673182352       -0.2433206933        0.9659658165
 C         -3.7405130717        0.8315969537        0.4715196205
 C         -3.7715989271        1.0940264643       -0.8481219879
 C         -4.6711833955        2.0953822162       -1.5152898867
 C         -6.0985298745        1.5225853376       -1.6301274099
 C         -7.1470124642        2.2712779010       -0.8070806768
 H         -7.3907601024        3.2089486267       -1.3108803389
 H         -8.0511478454        1.6589590657       -0.7950364664
 C         -6.7516539005        2.6039950788        0.6349001459
 H         -6.1063850309        3.4837555469        0.6454846578
 H         -7.6677178144        2.8842736545        1.1591935075
 C         -6.0614406427        1.4799867218        1.4183256017
 H         -6.4334564935        1.5032429165        2.4446921184
 H         -6.3255911476        0.5054397008        1.0071589929
 C         -4.5278802636        1.6010761136        1.4960346858
 H         -4.2425708461        2.6564275236        1.4604569528
 H         -4.1947963032        1.2044385163        2.4599587795
 H         -6.4121064262        1.5344644101       -2.6749754242
 H         -6.0725162926        0.4752341033       -1.3221032464
 H         -4.6752169466        3.0233204627       -0.9476739934
 H         -4.2598431745        2.2926238191       -2.5053539985
 O         -3.0272936903        0.4108173141       -1.7559695736
 C         -2.1955077299       -0.6304412980       -1.3694683934
 O         -1.5733029816       -1.1663428995       -2.3044104273
 O         -2.7859673941       -0.4910822935        2.2008676306
 C         -1.2413204173       -2.0990402343        0.4204207923
 C          0.1951488548       -1.8267628989        0.0453471501
 C          1.0388508151       -2.7949049701       -0.4831266210
 C          2.3557142605       -2.4907451867       -0.7828604622
 C          2.8604317133       -1.2231086796       -0.5616730697
 C          2.0293652581       -0.2495994844       -0.0225338877
 C          0.7131362250       -0.5589210102        0.2813834898
 H          0.0690932600        0.2019805604        0.7069000809
 N          2.5357380386        1.0457343887        0.2014861927
 S          3.8834933116        1.1763340223        1.1997769630
 O          3.9198910666        0.1117067619        2.1761809049
 O          3.8398622418        2.5252765851        1.7211215701
 C          5.2634903099        1.0283537117        0.0851956583
 C          5.3644737926        1.9356547461       -0.9512579726
 C          6.4369931486        1.8377004575       -1.8232316670
 C          7.3860202876        0.8422000466       -1.6431542415
 C          7.2721921424       -0.0584370769       -0.5951620233
 C          6.2010808230        0.0330837126        0.2801003560
 H          6.0671379927       -0.6476687107        1.1054648302
 H          8.0111125946       -0.8312353003       -0.4567312416
 H          8.2193983913        0.7683174598       -2.3238352691
 H          6.5289927181        2.5363771116       -2.6391636765
 H          4.6076670329        2.6955901909       -1.0531420282
 H          1.8286284007        1.7050142443        0.4943113024
 H          3.8823170692       -0.9801018712       -0.8026607964
 H          2.9970760295       -3.2524008241       -1.1990733654
 H          0.6645780060       -3.7890558686       -0.6635777224
 H         -1.3031569030       -2.1169224040        1.5195451286
 C         -1.7682940564       -3.4136050495       -0.1170056931
 C         -1.5587434042       -4.6848656151        0.6485526698
 C         -2.9220498103       -4.0671428703        0.5809188308
 H         -3.6807852632       -4.5496538860       -0.0167057869
 H         -3.3078079695       -3.5779204808        1.4636710270
 H         -1.3836758380       -5.5961360199        0.0968672184
 H         -1.0213442560       -4.6233253182        1.5828912414
 H         -1.7494010481       -3.4556034470       -1.2002514834
