  62
        -98.94337636
 C         -1.2210791822       -0.6657526677        0.6061490301
 C         -1.9333939419       -0.5021642883       -0.6074813045
 C         -2.9189480203        0.5880280998       -0.6238144072
 C         -3.0223144222        1.4188667757        0.4279125350
 C         -3.9628137186        2.5871428740        0.5477142166
 C         -5.3732564346        2.2062062720        1.0188125833
 C         -6.2306721612        1.4762793083       -0.0160269795
 H         -7.2531727432        1.4655668047        0.3665695863
 H         -6.2368038405        2.0453922849       -0.9461472204
 C         -5.7937128310        0.0317705079       -0.2970293344
 H         -5.1381782210       -0.3128434989        0.5060583663
 H         -6.6698177603       -0.6204164006       -0.2967666641
 C         -5.0820628458       -0.1659854330       -1.6355382212
 H         -4.7881706364       -1.2156304211       -1.7155806790
 H         -5.7720112967        0.0535050518       -2.4532048926
 C         -3.8236688086        0.6939865797       -1.8141208549
 H         -4.0987455457        1.7334873578       -1.9924799838
 H         -3.2723574357        0.3246420445       -2.6825472930
 H         -5.2865476698        1.5930307496        1.9189008723
 H         -5.8842654610        3.1313468304        1.2952807858
 H         -3.5233116387        3.2651067139        1.2828948630
 H         -4.0235341869        3.1078378300       -0.4085717848
 O         -2.2372719368        1.2981838043        1.5318977187
 C         -1.3296136276        0.2579791977        1.6482589527
 O         -0.6748655530        0.2695974156        2.7111555218
 O         -1.7682240846       -1.2185849360       -1.6279322717
 C         -0.1894827252       -1.7659638875        0.7829613045
 C          0.7683098663       -1.7605594671       -0.3838725269
 C          1.1526978203       -2.8917049624       -1.0909282492
 C          2.0663645366       -2.7882826534       -2.1263261488
 C          2.6313749519       -1.5715068018       -2.4619468378
 C          2.2495983788       -0.4327288534       -1.7610470971
 C          1.3240619860       -0.5379741681       -0.7376003493
 H          1.0069677839        0.3557786836       -0.2219636402
 N          2.7912235792        0.8260841900       -2.0617665754
 S          3.0305027879        1.9337860975       -0.8349625552
 O          1.7800496873        2.5375640363       -0.4452164165
 O          4.0268153140        2.8407067764       -1.3652044799
 C          3.7325068117        0.9899853729        0.5074065488
 C          4.9924588320        0.4559559080        0.3142740302
 C          5.5564975018       -0.3174996762        1.3147420743
 C          4.8520832256       -0.5482815089        2.4869548914
 C          3.5920512957       -0.0008219496        2.6687205355
 C          3.0237559967        0.7773348738        1.6717805640
 H          2.0416782559        1.2094628781        1.7897256121
 H          3.0367234012       -0.1763529878        3.5765710904
 H          5.2866729934       -1.1556542864        3.2650429415
 H          6.5387833808       -0.7398172988        1.1778424732
 H          5.5129691317        0.6666775517       -0.6056893226
 H          3.5461537269        0.8231943997       -2.7311846278
 H          3.3474446665       -1.4966771895       -3.2656900359
 H          2.3488941506       -3.6726929551       -2.6768658283
 H          0.7232319070       -3.8497206714       -0.8487296915
 H          0.3889124734       -1.4628321711        1.6724029000
 C         -0.7705807113       -3.1371739214        1.0959432093
 C         -2.1541971297       -3.2844546205        1.6542629605
 C         -1.8512062523       -3.7624516424        0.2676812483
 H         -1.8100645166       -4.8278598620        0.0932441636
 H         -2.2276124535       -3.1950018736       -0.5678961551
 H         -2.3195900978       -4.0163486542        2.4308366416
 H         -2.7458060581       -2.3869708088        1.7671477384
 H         -0.0211922323       -3.8097546124        1.5016583209
