  62
        -98.93291442
 C         -1.9406253206       -1.4272710596       -0.4274614489
 C         -2.9132514008       -1.3746005790        0.6028080109
 C         -4.1126882506       -0.5571207090        0.3573114803
 C         -4.2202843203        0.0967741406       -0.8117541000
 C         -5.3222992901        1.0221028505       -1.2496218005
 C         -4.9741117400        2.4824808906       -0.9155214010
 C         -5.3814640302        2.9372100812        0.4854544887
 H         -4.9677934901        3.9372273912        0.6350384684
 H         -6.4692090302        3.0219747814        0.5322983785
 C         -4.9108930805        2.0340163216        1.6285274291
 H         -3.8768550105        1.7296974914        1.4545226095
 H         -4.9232156306        2.6234711320        2.5473884289
 C         -5.7960322907        0.7936214618        1.8214447895
 H         -6.0967410109        0.7236973323        2.8688469594
 H         -6.7123094006        0.9163670317        1.2443510792
 C         -5.1342332708       -0.5442278084        1.4617397701
 H         -5.9144205009       -1.2746476084        1.2223694703
 H         -4.6006110110       -0.9331165881        2.3346704804
 H         -3.8957142699        2.6082416804       -1.0455015209
 H         -5.4670867598        3.1346278604       -1.6395468914
 H         -5.3977649399        0.9224639001       -2.3345070805
 H         -6.2692118302        0.7316191408       -0.8042569006
 O         -3.2618727901        0.0287655301       -1.7741163898
 C         -2.1001156603       -0.7209169900       -1.6201882492
 O         -1.3453241501       -0.6668464905       -2.6065057091
 O         -2.7817222910       -1.9978589486        1.6911786511
 C         -0.7130599807       -2.2707618096       -0.1302322784
 C          0.2723530292       -1.4895951894        0.7029457315
 C          0.8207492889       -2.0509736190        1.8513798818
 C          1.7108584289       -1.3377595988        2.6336498717
 C          2.0857455791       -0.0568207790        2.2713862613
 C          1.5458618494        0.5133573406        1.1244845110
 C          0.6377010594       -0.1967383496        0.3519217411
 H          0.2207530297        0.2648632201       -0.5312841192
 N          1.9239302996        1.8122126804        0.7133020505
 S          2.9057614999        1.8804395197       -0.6440416093
 O          3.2488043901        3.2760976996       -0.8028163398
 O          2.2482587000        1.2379199994       -1.7499995592
 C          4.3579349697        0.9560275697       -0.1698779187
 C          4.3288664695       -0.4217687603       -0.2573500782
 C          5.4291111794       -1.1431525003        0.1787312823
 C          6.5318060693       -0.4786032702        0.6934698423
 C          6.5459115095        0.9057257598        0.7740451117
 C          5.4470963997        1.6324149698        0.3441671612
 H          5.4146596998        2.7093351398        0.3832663108
 H          7.4061575495        1.4199675299        1.1713040717
 H          7.3856831692       -1.0439382902        1.0317660927
 H          5.4178493592       -2.2192162103        0.1146159428
 H          3.4578686295       -0.9040929203       -0.6709452781
 H          2.3521150396        2.3561985006        1.4508171404
 H          2.7841114491        0.5044776411        2.8740117412
 H          2.1198651886       -1.7835364085        3.5270032820
 H          0.5257073587       -3.0492370089        2.1387034722
 H         -1.0833588310       -3.0934600193        0.5037019219
 C         -0.0725590606       -2.9103890302       -1.3515356080
 C          1.0927561796       -2.3232528506       -2.0825955280
 C          1.2817189193       -3.5492218303       -1.2436061775
 H          1.4486139493       -4.4919180305       -1.7421568871
 H          1.8085422292       -3.4418224300       -0.3071559274
 H          1.1004773098       -2.4183054110       -3.1579288880
 H          1.4869535897       -1.3760411705       -1.7483626683
 H         -0.8087609205       -3.4208487703       -1.9646914679
