  62
        -98.93476107
 C         -2.3757434938       -1.3564854534        0.1924688066
 C         -2.2482055579        0.0118013438       -0.1465617947
 C         -3.3304788532        0.9163861644        0.3043536957
 C         -4.3582678044        0.4098368222        1.0086750670
 C         -5.5787445629        1.1173062594        1.5360681087
 C         -6.6052354977        1.4350546846        0.4381376388
 C         -6.0145709515        2.0257652557       -0.8389083090
 H         -6.8252067854        2.1231162010       -1.5657867336
 H         -5.2884703912        1.3255216264       -1.2556177364
 C         -5.3627196344        3.3973015134       -0.6790907271
 H         -6.0952566166        4.0979210400       -0.2725191621
 H         -5.0907446704        3.7450851504       -1.6790177049
 C         -4.1057448347        3.4435093436        0.1936846304
 H         -4.3566316136        3.4410779833        1.2510729873
 H         -3.6067887047        4.3970024189       -0.0031167467
 C         -3.0859883267        2.3491590540       -0.1048840710
 H         -2.1294555947        2.6245901186        0.3570201097
 H         -2.8848967727        2.3312076286       -1.1825545617
 H         -7.3474939541        2.1209857978        0.8498029776
 H         -7.1151364489        0.5060089500        0.1717100458
 H         -5.2883588031        2.0197295671        2.0657503425
 H         -6.0413730246        0.4418225053        2.2591691135
 O         -4.4328356808       -0.9152168400        1.3231427182
 C         -3.4579498375       -1.8159432616        0.9490283192
 O         -3.6606276910       -2.9818336889        1.3431730381
 O         -1.2901474933        0.4902484293       -0.8091116788
 C         -1.3237746901       -2.3968554876       -0.1605045114
 C          0.0354626285       -1.8916786243        0.2520482424
 C          0.4092480848       -1.9581447577        1.5906231301
 C          1.6248344107       -1.4500760736        2.0088492065
 C          2.4851658422       -0.8532944891        1.1037569475
 C          2.1109880700       -0.7637467520       -0.2299287028
 C          0.9026951296       -1.3022922343       -0.6529622014
 H          0.6149423220       -1.2173704771       -1.6891979634
 N          2.9691272025       -0.1457161026       -1.1542735267
 S          3.7208469136        1.2919787034       -0.7271608307
 O          2.9506218621        2.0539860272        0.2278405986
 O          4.0200419401        1.9462762054       -1.9828355824
 C          5.2496062335        0.7540952868        0.0151366391
 C          6.0369284182       -0.1397396133       -0.6841353383
 C          7.2333037109       -0.5585487867       -0.1244338349
 C          7.6226778322       -0.0770105892        1.1166167183
 C          6.8235945370        0.8230809241        1.8044940463
 C          5.6250159456        1.2451009473        1.2502024381
 H          4.9687375204        1.9390624651        1.7513629393
 H          7.1275416263        1.1972931294        2.7689495389
 H          8.5540767602       -0.4050710659        1.5503721206
 H          7.8573252378       -1.2584645243       -0.6564384584
 H          5.7003096579       -0.4881192973       -1.6461194084
 H          2.5753961163       -0.0780322480       -2.0819365599
 H          3.4261703446       -0.4380488277        1.4256842780
 H          1.9040520929       -1.5124316923        3.0497597687
 H         -0.2730120585       -2.4034539066        2.3020753483
 H         -1.5685423742       -3.2654083509        0.4713214281
 C         -1.3654868477       -2.8867564161       -1.6003456818
 C         -2.6807837738       -3.1473030932       -2.2706421269
 C         -1.8023269387       -2.0333332562       -2.7509689186
 H         -1.2933933841       -2.1559271747       -3.6963809781
 H         -2.0973976263       -1.0166973104       -2.5459748176
 H         -2.7823833264       -4.0281759103       -2.8862777152
 H         -3.5748225811       -2.8921553833       -1.7199706273
 H         -0.5717270289       -3.6000962497       -1.8013197096
