  62
        -98.93714259
 C         -1.8513675403       -0.9074900507        0.0183733489
 C         -2.3691561802        0.4091976393        0.0322739709
 C         -3.7961794602        0.5351780889        0.3718579711
 C         -4.5057987002       -0.5727632714        0.6533813995
 C         -5.9821049502       -0.6157568917        0.9287551395
 C         -6.7657839103       -0.4941893298       -0.3938609703
 C         -7.5992396702        0.7813595405       -0.5189118284
 H         -7.9239661302        0.8587805420       -1.5587403983
 H         -8.4942150002        0.6828866496        0.0990030614
 C         -6.8952811901        2.0815793698       -0.1188139266
 H         -6.8946206900        2.1797663983        0.9677483136
 H         -7.5022530200        2.9032934604       -0.5049307954
 C         -5.4577218001        2.2511767105       -0.6271379764
 H         -5.2925490501        1.6522344918       -1.5231078973
 H         -5.3199316300        3.2957101209       -0.9142646949
 C         -4.3678549801        1.9252228889        0.4114077231
 H         -3.5110458900        2.5831237691        0.2369805240
 H         -4.7452205200        2.1374082475        1.4156022934
 H         -7.4335536203       -1.3502705096       -0.5013955115
 H         -6.0530816803       -0.5465614886       -1.2196402704
 H         -6.1957159503       -1.5701886124        1.4101845581
 H         -6.2531177902        0.1874786973        1.6101665607
 O         -3.9663490003       -1.8195933915        0.6427905277
 C         -2.6330502804       -2.0201998711        0.3264679774
 O         -2.2679114304       -3.2125790812        0.3599839156
 H          1.6455330698        0.6410648304       -0.9414529989
 C          1.4876367298        0.4991725589        0.1139809509
 C          0.5004832398       -0.3551943617        0.5774190497
 C          0.3282037798       -0.4910947837        1.9533343595
 C          1.1077792699        0.2269128450        2.8379564905
 C          2.0877440599        1.0859573856        2.3707859217
 C          2.2746456599        1.2228244575        1.0014971019
 N          3.2536178900        2.0966271382        0.5005086931
 S          4.2750747299        1.6013774299       -0.7262406176
 O          5.3644252100        2.5521309298       -0.6967882163
 O          3.5568890898        1.4943338117       -1.9695794578
 C          4.8492976898       -0.0005540709       -0.1938475500
 C          5.8587382498       -0.0514013824        0.7479926299
 C          6.2669004597       -1.2848462531        1.2279603282
 C          5.6539801496       -2.4407582524        0.7679519665
 C          4.6431822496       -2.3725966109       -0.1780374934
 C          4.2338926797       -1.1415332402       -0.6663244616
 H          3.4553590997       -1.0492713291       -1.4052420714
 H          4.1689531595       -3.2726249004       -0.5359426047
 H          5.9671065696       -3.4010348629        1.1463575951
 H          7.0565826097       -1.3421457742        1.9596604680
 H          6.3148116999        0.8699996571        1.0721359813
 H          3.7675420000        2.5953909971        1.2120862438
 H          2.6929164800        1.6549804645        3.0600981925
 H          0.9545309399        0.1171901735        3.9009519403
 H         -0.4391513902       -1.1611167342        2.3173941985
 C         -0.3957548903       -1.1468174303       -0.3428857014
 H         -0.2127857304       -2.2164881806       -0.1640724330
 C         -0.1729609803       -0.8547555782       -1.8118683210
 C          0.8697380096       -1.6060892872       -2.5814647221
 C         -0.5837039204       -1.8773620667       -2.8266970525
 H         -1.0264260904       -1.5376726954       -3.7510198220
 H         -1.0008953605       -2.8026658672       -2.4561230838
 H          1.4331999396       -1.0786682961       -3.3372902414
 H          1.4324782795       -2.3598113980       -2.0512713233
 H         -0.3418868203        0.1864670222       -2.0631023195
 O         -1.6779986001        1.4295995696       -0.2246979177
