  62
        -98.94637617
 C         -1.7824865714       -0.7341836315        0.2436425800
 C         -3.0758839183       -0.9581079730        0.7734698990
 C         -3.9879205976        0.1904149465        0.7365292770
 C         -3.5600604169        1.3671157545        0.2435457452
 C         -4.3654317438        2.6351676651        0.1572850287
 C         -5.2652773889        2.7192538830       -1.0833275069
 C         -6.4941959948        1.8095047946       -1.0592908790
 H         -7.1441103022        2.1275713699       -1.8769474433
 H         -7.0421400193        1.9648040576       -0.1293801468
 C         -6.1807893983        0.3165718376       -1.2312904810
 H         -5.1736774494        0.1997071245       -1.6383655059
 H         -6.8707618868       -0.1192992405       -1.9573990559
 C         -6.2940784481       -0.5070144868        0.0516300092
 H         -6.0142088005       -1.5383953674       -0.1778500680
 H         -7.3306076351       -0.5085020801        0.3961115098
 C         -5.3991293237       -0.0166982376        1.1972814603
 H         -5.3857947589       -0.7847792266        1.9745285579
 H         -5.8010671652        0.9032372643        1.6211735190
 H         -4.6637884274        2.4951851452       -1.9673666131
 H         -5.6074785755        3.7532647295       -1.1678836424
 H         -3.6475019843        3.4570441876        0.1174214782
 H         -4.9722818943        2.7466548650        1.0562176340
 O         -2.2984344749        1.5489181794       -0.2297217057
 C         -1.3864392767        0.5036621558       -0.2605545926
 O         -0.2789464954        0.8050585858       -0.7434643622
 O         -3.4458101673       -2.0601039153        1.2597907930
 C         -0.7917483699       -1.8835217378        0.2136577839
 C          0.4603240677       -1.5117385997        0.9671996897
 C          0.3423257746       -1.0704208480        2.2838151887
 C          1.4588547555       -0.7182962240        3.0156992168
 C          2.7195312286       -0.7902044807        2.4474439758
 C          2.8493624406       -1.2339129398        1.1381981901
 C          1.7253376981       -1.6020352047        0.4092837745
 H          1.8608223152       -1.9366731573       -0.6050131512
 N          4.1186349874       -1.3419564735        0.5368536903
 S          4.4320370321       -0.4945116222       -0.8738975382
 O          3.5320450697       -0.9191359994       -1.9132310629
 O          5.8416539903       -0.7081564131       -1.1221801712
 C          4.1617409190        1.2140245093       -0.4376511668
 C          2.8739219389        1.7065482792       -0.3718469203
 C          2.6862894264        3.0180488173        0.0387370286
 C          3.7750070557        3.8071922243        0.3744991094
 C          5.0620592098        3.2950481802        0.3026391923
 C          5.2585997246        1.9852446045       -0.1018986186
 H          6.2402092946        1.5456381337       -0.1768252080
 H          5.9085737023        3.9103516680        0.5618806859
 H          3.6185407768        4.8261181605        0.6923394403
 H          1.6806973798        3.4046714107        0.0912954392
 H          2.0327550781        1.0856304059       -0.6377783118
 H          4.8839198620       -1.1985363895        1.1815760102
 H          3.5943923858       -0.5097730782        3.0143774717
 H          1.3490027120       -0.3785897485        4.0344425516
 H         -0.6436733085       -1.0073530575        2.7240787868
 H         -1.2842427841       -2.7069923263        0.7523720600
 C         -0.5378494935       -2.3227029266       -1.2129133979
 C         -0.1389104753       -3.7371423062       -1.5052291605
 C         -1.5098276374       -3.2542413782       -1.8700442553
 H         -1.7450355782       -3.1034029650       -2.9130792107
 H         -2.3469697655       -3.5949558835       -1.2781324079
 H          0.5725435902       -3.9161316270       -2.2975278558
 H         -0.0455134159       -4.4130129155       -0.6686096296
 H         -0.1085713765       -1.5373798389       -1.8262882104
