  62
        -98.93821682
 C          1.7685671577        0.1880236697       -0.8910843703
 C          2.9331559988       -0.6134073666       -0.9937093318
 C          4.2054725954        0.0664665279       -0.6921415504
 C          4.2033176218        1.3666315554       -0.3506790924
 C          5.4188021439        2.1572736935        0.0364888203
 C          5.6558418125        2.1058956913        1.5523043039
 C          5.6093554890        0.6942691650        2.1371570150
 H          5.8190797798        0.7778127552        3.2057717402
 H          4.5947395657        0.3012065275        2.0391433548
 C          6.5981602895       -0.2905288134        1.4976602069
 H          7.3746508343        0.2582423620        0.9634547002
 H          7.0898905482       -0.8578405084        2.2907925022
 C          5.9575284565       -1.3092159707        0.5531192507
 H          6.6993536701       -2.0814133993        0.3321547253
 H          5.1183845517       -1.7971568240        1.0554336828
 C          5.4604819528       -0.7552062553       -0.7881314914
 H          6.2583024415       -0.1860132359       -1.2694437323
 H          5.2119834415       -1.6077958958       -1.4270788716
 H          4.8856555358        2.7049856072        2.0435297362
 H          6.6260410824        2.5583720796        1.7654909206
 H          6.2854010473        1.7633594639       -0.4909430626
 H          5.2632323706        3.1950793374       -0.2629979404
 O          3.0674257291        2.1061277344       -0.2728928825
 C          1.8327643971        1.5371907417       -0.5303290819
 O          0.8737080047        2.3271295253       -0.4166996858
 H         -2.1100166578        0.0589376430       -0.2039788768
 C         -1.5595131987       -0.6454065826        0.4000847219
 C         -0.2476740237       -0.9515695147        0.0704165357
 C          0.4563678907       -1.8374073245        0.8792795651
 C         -0.1478625626       -2.4029500254        1.9873796568
 C         -1.4671289868       -2.1189229526        2.2942800961
 C         -2.1800183031       -1.2369902941        1.4912501977
 N         -3.5184258934       -0.9254452643        1.7660034735
 S         -4.6044933772       -0.7782008180        0.4978154183
 O         -5.8945981282       -1.0570449707        1.0905965546
 O         -4.2219054359       -1.6067185148       -0.6206424790
 C         -4.5341332789        0.9429130157        0.0515293486
 C         -4.2546406486        1.3044432160       -1.2512107570
 C         -4.2160643316        2.6502987597       -1.5798489663
 C         -4.4583806112        3.6054557400       -0.6049832494
 C         -4.7422482394        3.2257281333        0.6982855536
 C         -4.7819613907        1.8820711955        1.0329553456
 H         -5.0028297218        1.5477607293        2.0328935986
 H         -4.9300017769        3.9727394044        1.4526554799
 H         -4.4247545597        4.6520298366       -0.8636562550
 H         -3.9936087144        2.9470313856       -2.5923656553
 H         -4.0673328449        0.5301205165       -1.9790990557
 H         -3.9184503762       -1.4189669340        2.5505994188
 H         -1.9420715526       -2.5758301459        3.1492996052
 H          0.4095206055       -3.0865127106        2.6102755904
 H          1.4747130049       -2.0879430284        0.6242068591
 C          0.3680287440       -0.3360427378       -1.1594897585
 H         -0.2282687145        0.5566386153       -1.4082481662
 C          0.2940936195       -1.2670940883       -2.3629457307
 C          0.1104464202       -2.7476969067       -2.2584162759
 C         -1.0122372795       -1.8916381583       -2.7581610476
 H         -1.2653998351       -1.9332164404       -3.8071802212
 H         -1.8637081696       -1.7525734397       -2.1066687629
 H          0.6481665713       -3.3693186571       -2.9579656356
 H          0.0201255261       -3.1824365200       -1.2754949841
 H          0.9283366656       -0.9216642154       -3.1736848727
 O          2.9365377367       -1.8290877717       -1.3133361870
