  62
        -98.94166242
 C         -1.9210664028       -1.0838071733       -0.1354249042
 C         -2.1255664726        0.3117242453       -0.2717834780
 C         -3.3663051254        0.8396807704        0.3206180786
 C         -4.1939601164        0.0125639309        0.9825704946
 C         -5.5068660315        0.4122037769        1.5893867775
 C         -6.6590788167        0.2262420839        0.5920552134
 C         -6.3904437267        0.8362402882       -0.7837306169
 H         -5.5713587219        0.2929261278       -1.2604187555
 H         -7.2822714146        0.6711677503       -1.3921632276
 C         -6.0577646638        2.3346401795       -0.7600805589
 H         -6.3794502024        2.7706588050        0.1864362292
 H         -6.6210416890        2.8308772436       -1.5532097695
 C         -4.5812047732        2.6603781619       -0.9918876087
 H         -4.2307117025        2.1500595747       -1.8925258328
 H         -4.4948673593        3.7355215317       -1.1706131250
 C         -3.6318185798        2.3106992170        0.1609734113
 H         -2.6626328899        2.7689926516       -0.0572035842
 H         -4.0106146479        2.7373092400        1.0920546874
 H         -7.5601008996        0.6700443173        1.0193618518
 H         -6.8357624157       -0.8441604833        0.4633459361
 H         -5.6878997355       -0.2178707219        2.4619103637
 H         -5.4532206668        1.4510843859        1.9093434680
 O         -3.9429895318       -1.3124908180        1.1345444264
 C         -2.8197256410       -1.8908348055        0.5699157237
 O         -2.7306527186       -3.1204942958        0.7589417297
 H          0.3811161954        0.3890912859        0.3743991667
 C          0.9258998179       -0.5067275385        0.6330953569
 C          0.4847197093       -1.7328632260        0.1542785256
 C          1.2033290179       -2.8739419749        0.4906556253
 C          2.3328701856       -2.7874309693        1.2865255521
 C          2.7700887846       -1.5633728889        1.7601254761
 C          2.0581718581       -0.4173657605        1.4297040528
 N          2.4961961737        0.8392226625        1.8971110773
 S          4.0469318121        1.3028640640        1.4613757148
 O          4.9987595736        0.5049154869        2.1923636613
 O          4.1017780350        2.7290794104        1.6862205967
 C          4.1539956525        0.9406327656       -0.2807526927
 C          4.6404841677       -0.2836818583       -0.6936175785
 C          4.6427972607       -0.5795001937       -2.0474207364
 C          4.1634469330        0.3480149996       -2.9592264800
 C          3.6832440641        1.5754032085       -2.5286643360
 C          3.6704355297        1.8741116962       -1.1759517878
 H          3.3045314128        2.8166568879       -0.8009249743
 H          3.3101050112        2.2954986993       -3.2389312228
 H          4.1614402588        0.1128244306       -4.0115179228
 H          5.0143127542       -1.5331647051       -2.3855976794
 H          5.0111271086       -0.9744353797        0.0454471724
 H          1.8483187262        1.5828339684        1.6767738723
 H          3.6505607878       -1.4758041953        2.3760630269
 H          2.8780936780       -3.6829028855        1.5431148103
 H          0.8635984924       -3.8352736044        0.1339185064
 C         -0.7297692276       -1.8168236734       -0.7333845522
 H         -1.0377017928       -2.8734762855       -0.7695080006
 C         -0.4382450749       -1.3876198132       -2.1667379186
 C          0.7336546578       -0.5482388236       -2.5661156784
 C          0.7053424821       -2.0028917883       -2.9184395050
 H          0.5531064124       -2.2874987388       -3.9482558405
 H          1.3619284566       -2.6595589316       -2.3680927062
 H          0.5802172446        0.1824448810       -3.3450620162
 H          1.4178236466       -0.2230209809       -1.7988359736
 H         -1.3550734905       -1.2253125966       -2.7253790774
 O         -1.3275784813        1.0970479188       -0.8464550396
