  62
        -98.94752844
 C         -1.3339847979       -1.6285233276       -0.5020254375
 C         -1.1950215486       -0.3189330344       -1.0263628448
 C         -2.3844834070        0.5424406616       -0.9264414160
 C         -3.5129708899        0.0619878220       -0.3764717681
 C         -4.7831781096        0.8393319537       -0.1883478688
 C         -4.8302821428        1.5133159465        1.1891895415
 C         -3.5660751107        2.3001415120        1.5356404283
 H         -3.7306273460        2.7704488280        2.5079199877
 H         -2.7278418274        1.6087651371        1.6556995423
 C         -3.1836099406        3.3731639243        0.5072317005
 H         -4.0432254653        3.6108962078       -0.1212483561
 H         -2.9085784880        4.2849921129        1.0419503615
 C         -1.9906433567        2.9991817570       -0.3749806438
 H         -1.1743411881        2.6434639916        0.2604318500
 H         -1.6495294950        3.9066795382       -0.8825380422
 C         -2.2630633181        1.9437405473       -1.4552289155
 H         -3.1528657945        2.2211170519       -2.0249420003
 H         -1.4060904035        1.9326528333       -2.1350893413
 H         -5.6939889348        2.1804646027        1.2178086801
 H         -4.9713036991        0.7413011956        1.9491950617
 H         -4.8633589226        1.5884171298       -0.9736344419
 H         -5.6228261892        0.1468973645       -0.2717753600
 O         -3.6146053017       -1.2020531295        0.1076655117
 C         -2.5312884212       -2.0618735525        0.0756424295
 O         -2.7596695547       -3.1837692725        0.5736745650
 H          1.2459655965       -0.4444000279        0.0292733900
 C          1.3831220661       -1.1946842567        0.7895518276
 C          0.7086212651       -2.4022960027        0.6854822427
 C          0.8861093547       -3.3556260379        1.6811681926
 C          1.7130918340       -3.0966165725        2.7601956110
 C          2.3637384848       -1.8810429632        2.8738944786
 C          2.1908447964       -0.9214957255        1.8824637862
 N          2.8424638403        0.3176463871        1.9479993288
 S          2.0953382116        1.6861018080        1.3333106597
 O          2.7943917909        2.7864208662        1.9698794732
 O          0.6676344165        1.6567871239        1.5538117213
 C          2.4962384020        1.7068148246       -0.4010321889
 C          1.7615174299        2.5358311428       -1.2229558300
 C          2.0793844528        2.6004111306       -2.5695179087
 C          3.1248845602        1.8406596791       -3.0685381932
 C          3.8586185982        1.0188549942       -2.2277971190
 C          3.5467054002        0.9506670152       -0.8794375609
 H          4.0916631707        0.3108749433       -0.2052005751
 H          4.6694814860        0.4249303818       -2.6186080253
 H          3.3653660067        1.8859958158       -4.1192722223
 H          1.5049100388        3.2365665911       -3.2240129276
 H          0.9473283213        3.1013657503       -0.7999357969
 H          3.3387793755        0.5071240205        2.8059969021
 H          2.9957158750       -1.6722143330        3.7237624453
 H          1.8426857995       -3.8440150579        3.5283725860
 H          0.3566157267       -4.2948874656        1.6146331651
 C         -0.2085729298       -2.6537132214       -0.4870524470
 H         -0.6949400521       -3.6262690742       -0.3308182309
 C          0.5767728421       -2.7115718238       -1.7830790109
 C          1.3488305939       -3.9537355697       -2.1070981239
 C          0.1117132974       -3.6156727022       -2.8828043799
 H          0.2147639820       -3.2788752523       -3.9032046447
 H         -0.7785913657       -4.2018291425       -2.7052320396
 H          2.3054208426       -3.8514615016       -2.5955044406
 H          1.2974438483       -4.7727525997       -1.4056308958
 H          1.0053082729       -1.7602973572       -2.0685890926
 O         -0.1506925213        0.1293900968       -1.5688930484
