  62
        -98.93750022
 C         -0.8003246929       -1.6913705840        0.7308098893
 C         -1.4223590315       -1.4898309018       -0.5241323513
 C         -2.5616008605       -0.5508681999       -0.5524706495
 C         -2.8803974052        0.1398714889        0.5568316034
 C         -3.9779633142        1.1466119690        0.8310153272
 C         -4.8107594435        1.7245853717       -0.3099720619
 C         -4.0502472648        2.6618080915       -1.2485951482
 H         -4.7039350711        2.9080080129       -2.0880350886
 H         -3.8363234692        3.5890280314       -0.7120973351
 C         -2.7257209437        2.1282813480       -1.7883519552
 H         -2.0382726720        1.9416501699       -0.9612929020
 H         -2.2785951569        2.9088638186       -2.4089073868
 C         -2.8262769854        0.8646834622       -2.6384547847
 H         -1.8383665139        0.6756963967       -3.0674278530
 H         -3.5247432343        1.0253138309       -3.4622731371
 C         -3.2490970186       -0.4032179852       -1.8798927138
 H         -4.3287819498       -0.4498639037       -1.7594826651
 H         -2.9475490363       -1.2674404595       -2.4790996871
 H         -5.2865256142        0.9241045318       -0.8689735685
 H         -5.6138712915        2.3039187682        0.1537344172
 H         -4.6555633323        0.6571226339        1.5394831800
 H         -3.5013332811        1.9654181730        1.3783615879
 O         -2.1937321822       -0.0272855217        1.7263903444
 C         -1.1569583973       -0.9331719286        1.8462868231
 O         -0.6310183387       -0.9600365507        2.9778815949
 O         -1.0645253872       -2.0663261210       -1.5827637489
 C          0.3935403136       -2.6171598300        0.8897997729
 C          1.4162665103       -2.2832526507       -0.1692017019
 C          1.9431527214       -3.1961030077       -1.0714601886
 C          2.8794989242       -2.7869273208       -2.0059675023
 C          3.3194738622       -1.4768198550       -2.0485270528
 C          2.7967594528       -0.5542927184       -1.1479401640
 C          1.8498157984       -0.9642797104       -0.2266176837
 H          1.4384162535       -0.2477713504        0.4687516830
 N          3.1980887893        0.7891491711       -1.1666336531
 S          3.3131478932        1.6654828968        0.2533064216
 O          4.2325375557        2.7375429307       -0.0661307162
 O          3.6815416223        0.8259476452        1.3689407233
 C          1.6969325455        2.3717753302        0.4982452441
 C          0.9614839652        2.0531336297        1.6217965532
 C         -0.2766463116        2.6486919086        1.8066304393
 C         -0.7510217182        3.5552386458        0.8721755967
 C          0.0014803128        3.8694182655       -0.2501508242
 C          1.2359402933        3.2725017260       -0.4423502458
 H          1.8547703708        3.4966103673       -1.2951889695
 H         -0.3732976840        4.5758278757       -0.9729824498
 H         -1.7117081759        4.0227725400        1.0215219172
 H         -0.8602208529        2.3884145173        2.6760540401
 H          1.3554181752        1.3429188433        2.3335656074
 H          3.9420537646        1.0083368659       -1.8124198058
 H          4.0540251777       -1.1646949696       -2.7753089491
 H          3.2770825932       -3.5022600624       -2.7101058393
 H          1.6067346092       -4.2197838371       -1.0588489784
 H          0.8346801495       -2.3397164495        1.8627566214
 C          0.0585934445       -4.0973165229        0.9813372720
 C         -1.2784032578       -4.5534149459        1.4836219089
 C         -0.9004604113       -4.7752335840        0.0514652843
 H         -0.6749533820       -5.7833051482       -0.2652476163
 H         -1.3704303025       -4.1721733275       -0.7079352148
 H         -1.3150754537       -5.4038845948        2.1479840032
 H         -2.0119675277       -3.7919395348        1.7068519051
 H          0.9149467546       -4.6817007939        1.3053249335
