  62
        -98.94128546
 C          2.6941031270        0.2694504487       -0.2580145890
 C          2.2710096695        1.0533258406        0.8445300498
 C          1.7438198862        2.3896195541        0.5146788887
 C          1.6801334341        2.7854235317       -0.7678894320
 C          1.1501834283        4.1095307112       -1.2373824302
 C         -0.3456536489        4.0407280929       -1.5697392459
 C         -1.2002038520        3.4042284896       -0.4729811819
 H         -2.2419339696        3.4702498636       -0.7970182609
 H         -0.9612284046        2.3402245002       -0.4011962886
 C         -1.0551486740        4.0533026355        0.9101069168
 H         -0.6341825242        5.0549933628        0.8082007101
 H         -2.0496166402        4.1597240700        1.3487280764
 C         -0.2179183792        3.2464351685        1.9048360899
 H         -0.3874001399        3.6577135984        2.9041296106
 H         -0.5639104428        2.2092613734        1.9143073986
 C          1.2969342792        3.2520228899        1.6614364764
 H          1.6459794286        4.2791375999        1.5299462350
 H          1.7771924439        2.8355944969        2.5520441955
 H         -0.6997346611        5.0549232671       -1.7665497933
 H         -0.4715456122        3.4503136259       -2.4802415668
 H          1.3263404839        4.8558140857       -0.4646967037
 H          1.6988356933        4.3946075306       -2.1371783482
 O          2.0885189827        2.0037893358       -1.8011313796
 C          2.5724011724        0.7288280455       -1.5718461524
 O          2.8887197703        0.1083719561       -2.6088499192
 O          2.3378322860        0.6907181418        2.0471140309
 C          3.2010714868       -1.1604437274       -0.1385973079
 C          2.0608740980       -2.1136952603       -0.3994536655
 C          2.2278152479       -3.2503379574       -1.1821022536
 C          1.1562820777       -4.0852557338       -1.4464391244
 C         -0.1060543332       -3.7853271932       -0.9665828402
 C         -0.2824940356       -2.6497232904       -0.1848946977
 C          0.8029171986       -1.8421497414        0.1166418171
 H          0.6484960813       -0.9701526114        0.7343282152
 N         -1.5469559297       -2.2785650238        0.3049370033
 S         -1.8884803260       -0.6180808656        0.2257885847
 O         -1.3244488981       -0.0636219615       -0.9835280213
 O         -1.4960548404       -0.0068646634        1.4690736190
 C         -3.6684507763       -0.6510065441        0.1210193730
 C         -4.2746061306       -0.5702443876       -1.1181683081
 C         -5.6573989473       -0.6322681921       -1.1931598337
 C         -6.4055311753       -0.7777361516       -0.0345333307
 C         -5.7826902200       -0.8561865303        1.2024186088
 C         -4.4007147403       -0.7930924609        1.2846646172
 H         -3.8717206020       -0.8394276063        2.2222717422
 H         -6.3674900562       -0.9657462447        2.1013324487
 H         -7.4811320826       -0.8265927257       -0.0959910127
 H         -6.1440612041       -0.5666640388       -2.1528932751
 H         -3.6512508709       -0.4486878846       -1.9897498658
 H         -2.2970329077       -2.8304922751       -0.0897955916
 H         -0.9490594183       -4.4175529846       -1.2009744436
 H          1.2995172981       -4.9646987793       -2.0557266825
 H          3.1985193246       -3.4626546960       -1.6057107641
 H          3.9254138753       -1.2887393346       -0.9604097115
 C          3.9326324300       -1.4554627146        1.1616887607
 C          3.3218831860       -2.2403215704        2.2792953316
 C          4.4171883051       -2.8446027624        1.4562553206
 H          5.3929142040       -2.9637762682        1.9021024640
 H          4.1464071353       -3.6270498080        0.7640531106
 H          3.5351603411       -1.9220579535        3.2880274704
 H          2.3159952031       -2.6085009139        2.1466267172
 H          4.5873672056       -0.6400449978        1.4495894480
