  62
        -98.93812297
 C         -2.6586577516       -1.1613365650        0.2080969087
 C         -3.1452165759       -0.2636967307        1.1934892739
 C         -4.3969740283        0.4324170000        0.8814480141
 C         -5.0233737860        0.1817403441       -0.2823232923
 C         -6.3274134858        0.7806737514       -0.7349532919
 C         -6.1885279553        2.1613107813       -1.3906056508
 C         -5.8648710690        3.3071479979       -0.4311349740
 H         -6.0129072291        4.2379071657       -0.9823267354
 H         -6.5777801426        3.3008569198        0.3939880581
 C         -4.4331250133        3.2838922559        0.1222151248
 H         -3.8139754397        2.6283015671       -0.4945677849
 H         -4.0011515114        4.2850315058        0.0572944931
 C         -4.3234968701        2.8377098664        1.5802968219
 H         -3.2655684651        2.8213899505        1.8546645464
 H         -4.8276907140        3.5616570102        2.2244064998
 C         -4.9064677946        1.4464952786        1.8604895946
 H         -5.9955282401        1.4832257921        1.8376390516
 H         -4.5869185177        1.1346224338        2.8579187473
 H         -5.4189416061        2.1049324115       -2.1637954620
 H         -7.1381260992        2.3847242061       -1.8823540181
 H         -6.7465964404        0.0908579184       -1.4706319320
 H         -7.0129309296        0.8454184823        0.1106268617
 O         -4.5333662581       -0.6925868956       -1.1979475557
 C         -3.3342342115       -1.3689037594       -0.9957738457
 O         -3.0132451108       -2.1027895239       -1.9471300116
 O         -2.5620964444       -0.0665628049        2.2939991244
 C         -1.3712087182       -1.8935649011        0.5397818180
 C         -0.1620232032       -1.1584473984        0.0207241283
 C         -0.0716567911       -0.7501306046       -1.3061503595
 C          1.0609090777       -0.1002429614       -1.7627919925
 C          2.1212220143        0.1576816166       -0.9112990699
 C          2.0402556174       -0.2417330256        0.4154993116
 C          0.9017321988       -0.8940892713        0.8712115738
 H          0.8377718137       -1.1936307972        1.9090204694
 N          3.1134791256        0.0240536663        1.2836920627
 S          4.6402267211       -0.5072622194        0.8211059574
 O          4.5506654288       -1.6586934569       -0.0461608662
 O          5.3682810463       -0.6859297491        2.0580496887
 C          5.3303975157        0.8745210426       -0.0634780169
 C          5.4429009977        2.0818111379        0.5978785573
 C          5.9892045612        3.1637696217       -0.0736515215
 C          6.4140546133        3.0201514486       -1.3862548721
 C          6.2974546930        1.8003595307       -2.0349705281
 C          5.7507122998        0.7142455376       -1.3692172640
 H          5.6370157398       -0.2520576285       -1.8344159317
 H          6.6293069568        1.6904706223       -3.0549189991
 H          6.8395125546        3.8638378347       -1.9064393005
 H          6.0823953552        4.1138644162        0.4273859654
 H          5.1065656759        2.1500718168        1.6189997247
 H          2.9295199519       -0.2243336565        2.2453118971
 H          3.0049430348        0.6634322787       -1.2647424998
 H          1.1190370432        0.2084620762       -2.7956321814
 H         -0.8941806919       -0.9564290778       -1.9744415035
 H         -1.3191649174       -1.8692597366        1.6404071254
 C         -1.3897003822       -3.3594209737        0.1278323176
 C         -0.5826314195       -3.9228562575       -0.9986086519
 C         -0.2077254563       -4.2376803832        0.4166114463
 H         -0.3813021857       -5.2344928739        0.7927636714
 H          0.6811007021       -3.7660336128        0.8100584417
 H         -1.0389338854       -4.6918568842       -1.6027276160
 H          0.0558455892       -3.2565906738       -1.5565851973
 H         -2.3689590828       -3.8032299576        0.2785049703
