  62
        -98.94429647
 C         -2.5512063524       -1.0387819731        0.2717165472
 C         -2.6210155786       -0.1393724430       -0.8196642098
 C         -3.1172812752        1.2078184517       -0.5107040126
 C         -3.4661006849        1.5290555488        0.7472651472
 C         -3.9802654385        2.8628508584        1.2152451757
 C         -2.8723582353        3.8817110108        1.5159541300
 C         -2.1728322814        4.4662814550        0.2880050457
 H         -2.9200583423        4.8413196275       -0.4123327047
 H         -1.5871713426        5.3218019138        0.6301008324
 C         -1.2341699533        3.4900787213       -0.4349292050
 H         -0.9793471899        2.6562595062        0.2246038735
 H         -0.2906561108        3.9895084285       -0.6698606814
 C         -1.7833525397        2.9331354823       -1.7482177193
 H         -1.0497448309        2.2230641661       -2.1407774316
 H         -1.8871229660        3.7429174679       -2.4746311565
 C         -3.1334011001        2.2151128295       -1.6209411146
 H         -3.9298115295        2.9419954594       -1.4635782414
 H         -3.3252167539        1.6802624029       -2.5545603809
 H         -3.3277826726        4.7037708046        2.0729109410
 H         -2.1295068423        3.4101080717        2.1635769666
 H         -4.6644166447        3.2751401849        0.4732981472
 H         -4.5356461599        2.6758062693        2.1367317552
 O         -3.4000197391        0.6352692910        1.7682492637
 C         -2.9225416118       -0.6464372727        1.5626820599
 O         -2.8881045741       -1.3468908917        2.5941583281
 O         -2.2907631889       -0.4161335022       -2.0057416711
 C         -1.9994541706       -2.4548863000        0.1670130315
 C         -0.4925036040       -2.3940528723        0.2427201269
 C          0.2068409696       -2.9862969625        1.2873369010
 C          1.5803802261       -2.8443884128        1.3869430760
 C          2.2804579892       -2.0905782378        0.4610999103
 C          1.5880297883       -1.4958477370       -0.5843113699
 C          0.2198014366       -1.6692187133       -0.7022087391
 H         -0.3075361360       -1.1921147935       -1.5152961937
 N          2.2840401704       -0.6524662399       -1.4881840948
 S          2.5948268511        0.8616324783       -0.8044474305
 O          1.5879912500        1.2171091981        0.1701979738
 O          2.7680983007        1.7713511772       -1.9161800000
 C          4.1611885824        0.6086953956        0.0019643653
 C          4.2380720052        0.6431194659        1.3800620292
 C          5.4646526858        0.4233182337        1.9877062794
 C          6.5851535396        0.1732201212        1.2101958175
 C          6.4908285275        0.1422991500       -0.1734506111
 C          5.2679635257        0.3617819600       -0.7869301017
 H          5.1482067915        0.3517282658       -1.8574248130
 H          7.3644998613       -0.0527132849       -0.7741298764
 H          7.5376507335        0.0012551822        1.6861370377
 H          5.5393101805        0.4462360616        3.0630626107
 H          3.3381633127        0.8357856003        1.9422758070
 H          1.7639678573       -0.5077063405       -2.3442257453
 H          3.3466318936       -1.9541728386        0.5442926233
 H          2.1088239764       -3.3110254007        2.2041106552
 H         -0.3384160574       -3.5382828410        2.0390371121
 H         -2.3605718827       -2.9837820204        1.0590888431
 C         -2.4693772870       -3.2080500680       -1.0609270330
 C         -2.4277639306       -4.7055628373       -1.0512597626
 C         -3.7442358442       -3.9915647851       -0.9953567619
 H         -4.3817735204       -4.0090191473       -1.8663985937
 H         -4.2844558420       -3.9887023486       -0.0596718929
 H         -2.1591252987       -5.2179426876       -1.9621466222
 H         -2.0769430570       -5.1905896052       -0.1529724938
 H         -2.2460857842       -2.7021482857       -1.9905836531
