  62
        -98.93514883
 C         -2.2306563986       -0.7238425421        0.1230034369
 C         -3.4233848917       -0.8788114220        0.8765440619
 C         -4.3422074835        0.2700333008        0.9157380995
 C         -3.9948308380        1.4090721132        0.2939415860
 C         -4.7442830981        2.7168504600        0.2413609229
 C         -6.2606271077        2.6546517594        0.0110378603
 C         -6.7360298347        1.4943294958       -0.8756447861
 H         -7.3813452021        1.8903676526       -1.6619815387
 H         -5.8817710485        1.0220546727       -1.3640066825
 C         -7.5312686005        0.4391176662       -0.1028514197
 H         -8.1355040617       -0.1329854894       -0.8110256320
 H         -8.2185817931        0.9478368277        0.5764931363
 C         -6.6945927059       -0.5634556922        0.6911861662
 H         -6.1732417291       -1.2363284060        0.0047296015
 H         -7.3777790113       -1.1777315799        1.2824733001
 C         -5.6435253125        0.0485097122        1.6316396421
 H         -6.0104289655        0.9628801364        2.0913518707
 H         -5.4336375518       -0.6790778194        2.4202935749
 H         -6.5487443662        3.6032859243       -0.4450776312
 H         -6.7727461863        2.6003624510        0.9706793112
 H         -4.2729199236        3.2813845515       -0.5669320424
 H         -4.5445543300        3.2594756921        1.1700391181
 O         -2.8199170947        1.5323964427       -0.3833991758
 C         -1.9152679952        0.4841196631       -0.5003047240
 O         -0.9095844686        0.7736905650       -1.1758693389
 O         -3.7067597464       -1.9349202204        1.5010981306
 C         -1.2802342139       -1.9089691973        0.0843453723
 C          0.1056644622       -1.4631549947        0.4709172179
 C          0.4192739347       -1.2895580856        1.8155447772
 C          1.6657656199       -0.8282135145        2.1946419313
 C          2.6193095914       -0.5165999088        1.2410515990
 C          2.3075116409       -0.6651584662       -0.1032578586
 C          1.0656544326       -1.1591499338       -0.4805108811
 H          0.8294608393       -1.2620756362       -1.5281887047
 N          3.2608158616       -0.3347613408       -1.0807034739
 S          4.1362895725        1.0869458228       -0.9093425553
 O          3.4178667036        2.0887998823       -0.1571512154
 O          4.5321105286        1.4479722372       -2.2537002628
 C          5.5855030368        0.5716140150       -0.0079339100
 C          5.9479129126        1.2298740225        1.1508015373
 C          7.0847161067        0.8181817097        1.8292009464
 C          7.8364073472       -0.2382478063        1.3385325305
 C          7.4612677969       -0.8870115786        0.1714366564
 C          6.3264457416       -0.4797586653       -0.5113824053
 H          6.0029286055       -0.9541546504       -1.4226256067
 H          8.0486766883       -1.7077031617       -0.2077123574
 H          8.7198462916       -0.5572903439        1.8687183727
 H          7.3779433570        1.3226092600        2.7359083184
 H          5.3304358440        2.0437656205        1.4970080583
 H          2.9095922143       -0.4199823558       -2.0239046877
 H          3.5869926277       -0.1389584924        1.5280502715
 H          1.8974054087       -0.7033943373        3.2415543238
 H         -0.3322798844       -1.5110783653        2.5607766077
 H         -1.6558062932       -2.5802101365        0.8733658727
 C         -1.3078000230       -2.7081289326       -1.2101613990
 C         -2.6071757091       -2.9719514327       -1.9090316694
 C         -1.5744032507       -2.0981721185       -2.5521888877
 H         -1.0345580451       -2.4874330325       -3.4035607062
 H         -1.7532398988       -1.0354858654       -2.6019600412
 H         -2.7842261874       -3.9535523234       -2.3216864187
 H         -3.4909292106       -2.5009851570       -1.5036090156
 H         -0.5969225835       -3.5287066008       -1.1866744000
