  62
        -98.93807445
 C          2.0914438891        1.0845539716        0.0587911152
 C          2.8355063675        0.4214877115        1.0622167823
 C          3.6154147323       -0.7467155608        0.6270287340
 C          3.5469382069       -1.1364778276       -0.6591608984
 C          4.3390062920       -2.2561634937       -1.2724960214
 C          5.7892633640       -1.7970140041       -1.5265807592
 C          6.8388936593       -2.5325156706       -0.6931017798
 H          6.9904236510       -3.5291580308       -1.1128755398
 H          7.7785290238       -1.9855275938       -0.7949283603
 C          6.5156842218       -2.6957615156        0.7952311401
 H          5.8181858295       -3.5237531021        0.9307810676
 H          7.4438222417       -2.9865533233        1.2917699087
 C          5.9486216857       -1.4562108609        1.4990759457
 H          6.2463271106       -0.5469947416        0.9765323104
 H          6.3834407076       -1.4054398685        2.4993240734
 C          4.4187472204       -1.4637821934        1.6771244313
 H          4.1736886965       -0.9525389834        2.6129735041
 H          4.0663299469       -2.4955094381        1.7653997765
 H          5.8484238354       -0.7252626981       -1.3258969455
 H          6.0334712297       -1.9325511303       -2.5812046674
 H          4.3205671486       -3.1230522300       -0.6154707412
 H          3.8526270933       -2.5205823948       -2.2118035722
 O          2.7895316052       -0.4954811326       -1.5872955976
 C          2.0432382590        0.6271914659       -1.2580160434
 O          1.3977657252        1.1116122823       -2.2058327251
 O          2.8405378286        0.7853482325        2.2701722957
 C          1.2714380469        2.3059205121        0.4351269297
 C         -0.1911340134        2.0377751137        0.1771934537
 C         -1.0174562152        2.8943970285       -0.5371072339
 C         -2.3456086672        2.5678756764       -0.7524866501
 C         -2.8795505778        1.3933427048       -0.2560974132
 C         -2.0633446973        0.5317993233        0.4657195647
 C         -0.7348126926        0.8616319313        0.6802016683
 H         -0.0981860108        0.1859923029        1.2392845205
 N         -2.5992224424       -0.6594717509        0.9894650378
 S         -3.4229849817       -1.6761867184       -0.0653740112
 O         -3.3209693023       -2.9928177395        0.5270885129
 O         -2.9426120942       -1.5428174466       -1.4212948816
 C         -5.1110791172       -1.1204000808        0.0472490288
 C         -5.6993145494       -1.0726712450        1.2961176613
 C         -7.0141976504       -0.6480200124        1.4000618072
 C         -7.7155521452       -0.2838055709        0.2601440877
 C         -7.1117746691       -0.3407599432       -0.9866596598
 C         -5.7960716862       -0.7635541086       -1.0976529146
 H         -5.2825107862       -0.8180322509       -2.0444995981
 H         -7.6581986236       -0.0574556688       -1.8718774122
 H         -8.7387654506        0.0467681813        0.3438915394
 H         -7.4868510972       -0.6019692479        2.3678985105
 H         -5.1202924035       -1.3672499060        2.1553139467
 H         -1.9356867406       -1.1896455329        1.5364275744
 H         -3.9113241912        1.1336615615       -0.4277563292
 H         -2.9742555314        3.2389800067       -1.3175245911
 H         -0.6197803399        3.8123534221       -0.9369987017
 H          1.4096344971        2.4271688420        1.5199245182
 C          1.8000680738        3.5397589941       -0.2645547293
 C          1.6175506240        4.8926671382        0.3539341700
 C          2.9747761459        4.2586822962        0.3258696402
 H          3.7212388731        4.6614736911       -0.3421351657
 H          3.3798224919        3.8713269326        1.2494344803
 H          1.4339042572        5.7356317682       -0.2948189113
 H          1.1019030351        4.9429895879        1.3008334233
 H          1.7557100600        3.4565566185       -1.3446751663
