  62
        -98.94736943
 C         -1.7976930331       -1.1578251648       -0.4385377238
 C         -1.2576869936       -1.8392195456        0.6820533037
 C         -0.1388139341       -2.7561783184        0.3967582769
 C          0.3185032155       -2.8828212787       -0.8608847062
 C          1.4849320604       -3.7298968908       -1.2773814775
 C          2.7998326287       -2.9395476612       -1.2399242460
 C          3.0489450910       -2.2022470419        0.0760808688
 H          4.0346780070       -1.7359598554        0.0070846347
 H          2.3258099574       -1.3914496763        0.1867617639
 C          2.9878552414       -3.0873962585        1.3280530509
 H          3.1024395028       -4.1370219621        1.0524394861
 H          3.8248821531       -2.8277030908        1.9796462727
 C          1.7125560961       -2.9104577144        2.1551462871
 H          1.5394335104       -1.8455048598        2.3318675891
 H          1.8700203955       -3.3818415585        3.1296501777
 C          0.4377846403       -3.5190169511        1.5558271452
 H          0.6233483350       -4.5588512774        1.2750943811
 H         -0.3306342721       -3.5052825396        2.3346835531
 H          3.6209323216       -3.6342511515       -1.4265531658
 H          2.7872107634       -2.2016947273       -2.0453421294
 H          1.5508984400       -4.5947638510       -0.6200288219
 H          1.3090860342       -4.0736596096       -2.2983179346
 O         -0.2230806299       -2.2145862150       -1.9110297736
 C         -1.2805672484       -1.3404012761       -1.7250020406
 O         -1.6736984941       -0.7899541364       -2.7729544608
 O         -1.6709941707       -1.7137015382        1.8642755317
 C         -2.9161034740       -0.1296088173       -0.3580436563
 C         -2.3345579551        1.2568543979       -0.1965852575
 C         -2.7988592952        2.3198203944       -0.9622612941
 C         -2.2350476420        3.5765661423       -0.8367796235
 C         -1.1756959232        3.7878275338        0.0273434543
 C         -0.7024085210        2.7314233361        0.7968100988
 C         -1.3042017253        1.4845068025        0.7041497603
 H         -0.9413956537        0.6814334688        1.3271605983
 N          0.3971914152        2.9020572507        1.6586484957
 S          1.6782666658        1.8286287255        1.5361847710
 O          1.2948235770        0.5341233814        2.0303912821
 O          2.7640886651        2.4844989452        2.2321449261
 C          2.0448412653        1.7500080992       -0.2070687085
 C          2.9869454439        2.6135978653       -0.7308942599
 C          3.2354060120        2.5882612443       -2.0936099273
 C          2.5317850796        1.7139819088       -2.9088539917
 C          1.5863735761        0.8555786013       -2.3693290499
 C          1.3421014110        0.8705898660       -1.0054477817
 H          0.6126562165        0.2113224949       -0.5610707691
 H          1.0238464775        0.1788286848       -2.9946423892
 H          2.7190332836        1.6982341367       -3.9709337474
 H          3.9724696318        3.2511754098       -2.5173104918
 H          3.5133963227        3.2730468500       -0.0600103255
 H          0.7487763598        3.8489345960        1.6897713954
 H         -0.7142820331        4.7604714793        0.1056741998
 H         -2.6069982355        4.3944406353       -1.4344148891
 H         -3.5957115490        2.1518289965       -1.6708671478
 H         -3.4234375591       -0.1605728474       -1.3329270583
 C         -3.9464405280       -0.3963496115        0.7203471675
 C         -5.3453925365        0.1059618694        0.5322580472
 C         -5.0584520322       -1.3627874249        0.4510200480
 H         -5.3860312141       -2.0038622996        1.2552946829
 H         -5.0845282464       -1.8351826964       -0.5204357681
 H         -5.8764316732        0.4792270926        1.3943044883
 H         -5.5753250456        0.6258550955       -0.3853050689
 H         -3.5350789918       -0.3804539396        1.7209609440
