  62
        -98.94209620
 C          1.2534253360        0.9231977504        0.4356434715
 C          1.7950036200        0.6025756794       -0.8333145294
 C          2.6502160583       -0.5943776244       -0.8778810810
 C          2.8432558415       -1.3129667174        0.2431797225
 C          3.7226074576       -2.5249018196        0.3452818606
 C          5.1534698810       -2.1401007142        0.7466039629
 C          5.7446566814       -1.0036870359       -0.0875188035
 H          5.1860974058       -0.0862696183        0.1118611352
 H          6.7660658245       -0.8403494684        0.2629216479
 C          5.7596451269       -1.2676071092       -1.5996848616
 H          5.6426079577       -2.3349635383       -1.7912939823
 H          6.7330547769       -0.9726116048       -1.9972305640
 C          4.7032077833       -0.4923720872       -2.3893639614
 H          4.7566833036        0.5679986727       -2.1299044075
 H          4.9408404920       -0.5807797991       -3.4529368955
 C          3.2543551035       -0.9607889769       -2.2043056082
 H          2.6439380911       -0.4576930655       -2.9605855218
 H          3.1918200346       -2.0378688600       -2.3747281112
 H          5.7862616698       -3.0251853181        0.6591705696
 H          5.1477731703       -1.8285207051        1.7935991629
 H          3.3088093883       -3.1879486412        1.1068002155
 H          3.7299091539       -3.0454750198       -0.6104416428
 O          2.2886771570       -0.9856759347        1.4375059209
 C          1.4974341385        0.1449381705        1.5680358850
 O          1.0733706013        0.3449243637        2.7222745387
 H         -0.7075621704       -0.0604097754       -0.6192705277
 C         -1.3529297987        0.8057218464       -0.6911793765
 C         -0.9491752182        2.0096508259       -0.1355803912
 C         -1.8109212983        3.0984076661       -0.2378167507
 C         -3.0361193666        2.9784256998       -0.8685621234
 C         -3.4300977588        1.7734341581       -1.4253348379
 C         -2.5712743301        0.6892162566       -1.3450300326
 N         -2.9748830987       -0.5567779927       -1.8932866319
 S         -3.9752729498       -1.4248695796       -0.8649904136
 O         -4.1136604225       -2.7385154574       -1.4511415019
 O         -5.1887530096       -0.6737419037       -0.6743872127
 C         -3.0576551914       -1.5180913521        0.6610978702
 C         -3.1885369106       -0.5006567846        1.5848730872
 C         -2.3858916633       -0.5155487040        2.7139143237
 C         -1.4655347619       -1.5358075743        2.8962688655
 C         -1.3456831443       -2.5494677389        1.9579905329
 C         -2.1435023594       -2.5395230467        0.8252192455
 H         -2.0789461121       -3.3088483383        0.0715452063
 H         -0.6242168722       -3.3383051068        2.1017101020
 H         -0.8249738870       -1.5273569306        3.7635490929
 H         -2.4651260194        0.2750252494        3.4422908789
 H         -3.9120891686        0.2780900233        1.4048649101
 H         -2.1884884231       -1.1419157003       -2.1414686553
 H         -4.3859426121        1.6533986989       -1.9080639677
 H         -3.6932237044        3.8323539921       -0.9285667554
 H         -1.5176237549        4.0449070244        0.1874648703
 C          0.3578724717        2.1305234007        0.6150263994
 H          0.1174024871        2.1674262054        1.6882345509
 C          1.0949998987        3.4054838762        0.2409747064
 C          0.9379376419        4.6512309686        1.0584030424
 C          2.2179004665        3.8748136548        1.1153663047
 H          3.0996483573        4.2870366587        0.6482226299
 H          2.4249538191        3.2978470430        2.0054791184
 H          0.2930920355        4.6105742273        1.9235808103
 H          0.9391877642        5.6036303522        0.5500297216
 H          1.2228166694        3.5115947185       -0.8298683859
 O          1.5699607539        1.2660126183       -1.8793466333
