  62
        -98.94131487
 C         -0.5246856576       -1.5392780058        0.1150590443
 C         -1.2741174172       -0.7577487329        1.0207511112
 C         -2.3707484384        0.0523195038        0.4555818208
 C         -2.5547827293        0.0497650712       -0.8778851615
 C         -3.6377795469        0.7269457212       -1.6751790235
 C         -4.9868312342       -0.0007643747       -1.5677378425
 C         -5.3868779680       -0.3965975533       -0.1491371289
 H         -4.6276120625       -1.0624017952        0.2648804494
 H         -6.3168959374       -0.9676535846       -0.2139599397
 C         -5.6198385117        0.7676028827        0.8116221779
 H         -6.0143005110        0.3448037081        1.7391900052
 H         -6.3857170290        1.4267519905        0.3971842470
 C         -4.3883436318        1.6078336382        1.1620729358
 H         -4.6398998221        2.1973205115        2.0483972021
 H         -4.1578181424        2.3183673300        0.3737728235
 C         -3.1459468920        0.7968639122        1.5148777351
 H         -3.4065893208        0.0554448415        2.2791627365
 H         -2.4160368820        1.4583730968        1.9964035566
 H         -4.9304480324       -0.9136797932       -2.1657040243
 H         -5.7580832094        0.6386366331       -2.0006491346
 H         -3.7409842090        1.7634470482       -1.3736116900
 H         -3.3161062512        0.7090058510       -2.7183690768
 O         -1.7539718944       -0.6633067457       -1.7210567644
 C         -0.7396878836       -1.4798028398       -1.2611348044
 O         -0.1149639539       -2.0829493076       -2.1540211723
 H          1.5354768925        0.0207694757        0.4394949955
 C          2.2212995796       -0.6904616237        0.0011972898
 C          1.8982315908       -2.0415330556        0.0221998236
 C          2.7969529486       -2.9486408346       -0.5227546270
 C          3.9792901499       -2.5044730798       -1.0894460360
 C          4.2918776917       -1.1583140183       -1.1183201449
 C          3.4014310383       -0.2426536665       -0.5674246455
 N          3.6621231973        1.1328171147       -0.6160401193
 S          3.0573044346        2.1771557339        0.5304118311
 O          3.8285574003        3.3901643036        0.3524185021
 O          3.0980506264        1.6052215005        1.8566336535
 C          1.3751486149        2.5151785999        0.0511972741
 C          0.9641470911        2.3349900242       -1.2540689734
 C         -0.3261252509        2.6996536386       -1.6043093129
 C         -1.1719199678        3.2501062522       -0.6548692560
 C         -0.7481208714        3.4177603274        0.6535592631
 C          0.5365078291        3.0438737006        1.0125243006
 H          0.9050719610        3.1477440486        2.0209170952
 H         -1.4095655570        3.8424054694        1.3917921032
 H         -2.1656439625        3.5576129247       -0.9380161892
 H         -0.6641005334        2.5552279436       -2.6179753728
 H          1.6428658039        1.9061464602       -1.9729811572
 H          4.5699455947        1.4041892339       -0.9615816430
 H          5.2106811618       -0.8137852722       -1.5674819376
 H          4.6676118281       -3.2181661415       -1.5161574901
 H          2.5697020377       -4.0018280257       -0.5126471876
 C          0.5809025470       -2.4351429570        0.6414678519
 H          0.6376063197       -2.2305962315        1.7215298327
 C          0.2224664325       -3.8922061372        0.4367748920
 C          0.7476987517       -4.9386985859        1.3723264458
 C         -0.6998669279       -4.5542283032        1.4144483824
 H         -1.4324465644       -5.2539955123        1.0411823484
 H         -1.0484501349       -3.9593227954        2.2462234079
 H          1.3822792433       -4.6113425388        2.1821290058
 H          1.0075155866       -5.9067148510        0.9712136445
 H          0.1094758440       -4.1487645923       -0.6107587046
 O         -1.0538016535       -0.7455968556        2.2636890443
