  62
        -98.94170742
 C         -2.7519139805       -0.0167801300        0.1397512795
 C         -2.0312525405       -0.7814000403        1.0888727593
 C         -1.7897002006       -2.1880392502        0.7371309388
 C         -2.2393244807       -2.6698251299       -0.4341819013
 C         -2.0175850207       -4.0675758597       -0.9331654216
 C         -0.7502926408       -4.1712256795       -1.7927092618
 C          0.4954339193       -3.5491676398       -1.1604018617
 H          1.3307270292       -3.7468727196       -1.8368914818
 H          0.3818941493       -2.4627808498       -1.1157911114
 C          0.8383953193       -4.0788379101        0.2389023681
 H          1.9154454893       -4.2535317202        0.2877817280
 H          0.3458240893       -5.0378075302        0.4061385279
 C          0.4869847395       -3.1177271804        1.3763640684
 H          0.8476925595       -2.1166877804        1.1235897887
 H          1.0094117695       -3.4460605907        2.2791570083
 C         -1.0051978705       -3.0135287705        1.7175047986
 H         -1.4344884405       -4.0124807105        1.8162767583
 H         -1.0948387804       -2.5027115208        2.6805917587
 H         -0.5642394509       -5.2274210595       -1.9988974821
 H         -0.9341018309       -3.6665551993       -2.7442110816
 H         -1.9467576107       -4.7422599400       -0.0820005718
 H         -2.8783764708       -4.3533487295       -1.5405945617
 O         -2.9376798007       -1.9129576996       -1.3188151910
 C         -3.1859778106       -0.5763470597       -1.0666443106
 O         -3.8116120307        0.0054753406       -1.9766408104
 H         -0.4972907704        1.2617575596        1.1815511297
 C         -0.5763761705        1.9719779799        0.3720001299
 C         -1.8199028105        2.2423909101       -0.1801541199
 C         -1.8943631205        3.1614717503       -1.2195833997
 C         -0.7504201506        3.7721794404       -1.7059735696
 C          0.4933796895        3.4573370903       -1.1866859298
 C          0.5722336795        2.5479436900       -0.1424954400
 N          1.8504200496        2.1291170898        0.3289918798
 S          2.4027233694        0.9016027001       -0.7106209006
 O          2.6669476094        1.5064555804       -1.9923344805
 O          1.4772064794       -0.2102265799       -0.7103494009
 C          3.9400387395        0.4281231098        0.0582097591
 C          4.0540667595       -0.8105814004        0.6579554388
 C          5.2527577195       -1.1530571306        1.2645510986
 C          6.3080532995       -0.2539240006        1.2631649888
 C          6.1770921595        0.9871783896        0.6571326791
 C          4.9826675895        1.3350522898        0.0473772093
 H          4.8364381495        2.2834640099       -0.4418453104
 H          7.0007435496        1.6826617595        0.6578588892
 H          7.2392483596       -0.5231530108        1.7360808386
 H          5.3563567495       -2.1179391607        1.7342874283
 H          3.2079676395       -1.4789893303        0.6313403187
 H          1.7572160096        1.7101916695        1.2480896296
 H          1.3976110595        3.8791525603       -1.5936364397
 H         -0.8257010306        4.4801347607       -2.5174869894
 H         -2.8537144106        3.3726406105       -1.6695413296
 C         -3.0317942205        1.4734303900        0.2911660499
 H         -3.8587492305        1.6961047102       -0.3966844999
 C         -3.4444100204        1.8876376696        1.6891567201
 C         -4.2147316503        3.1598044496        1.8693844905
 C         -4.8918211403        1.8381200795        2.0709743002
 H         -5.1481984003        1.5339288893        3.0744648001
 H         -5.5946989404        1.5049311598        1.3210587901
 H         -4.4620825403        3.7251666198        0.9836617207
 H         -4.0062172502        3.7682015293        2.7358110206
 H         -2.7208656903        1.6225484494        2.4481427100
 O         -1.5937858904       -0.3372489606        2.1861061793
