  62
        -98.93556629
 C         -1.6732545101       -0.0250752878       -0.6903013878
 C         -2.9368254450       -0.3998056382       -1.1986617255
 C         -4.0980537118       -0.1881408184       -0.3143078319
 C         -3.9020426140        0.3621669251        0.8975968388
 C         -4.9162816577        0.6695017594        1.9701793813
 C         -6.2302324624        1.3195166238        1.5101655739
 C         -7.4383899870        0.3870101966        1.6129336005
 H         -7.3523919481       -0.1932711658        2.5340994644
 H         -8.3428227353        0.9940863118        1.6943173870
 C         -7.6262867645       -0.5645872729        0.4325556574
 H         -7.9620726650        0.0021962721       -0.4386529618
 H         -8.4261968876       -1.2614689923        0.6939443199
 C         -6.3862667632       -1.3684328933        0.0358674179
 H         -6.7233398105       -2.2581912659       -0.5004569864
 H         -5.8558512218       -1.7147004187        0.9223204660
 C         -5.4258292097       -0.6032083553       -0.8868636956
 H         -5.1707932583       -1.2273995303       -1.7491829596
 H         -5.9257622047        0.2801601557       -1.2948408259
 H         -6.4166770890        2.1829541194        2.1508652723
 H         -6.1240466144        1.6909184310        0.4920762016
 H         -5.1304755004       -0.2512006520        2.5187738138
 H         -4.3986787491        1.3322136422        2.6674581732
 O         -2.6626514896        0.7128766731        1.3453555707
 C         -1.5231920618        0.5288955742        0.5803612437
 O         -0.4693747367        0.8925649875        1.1318717769
 O         -3.0912135912       -0.9007259849       -2.3463847654
 C         -0.4453412795       -0.2215232236       -1.5571673563
 C          0.5751828202       -1.1080093617       -0.8857532960
 C          0.1650035139       -2.1499577935       -0.0594939435
 C          1.0871402385       -2.9559379495        0.5814198498
 C          2.4441960642       -2.7535451349        0.4005579586
 C          2.8649604215       -1.7378558075       -0.4445399248
 C          1.9368139948       -0.9239899621       -1.0821959949
 H          2.2851615235       -0.1343550403       -1.7304387951
 N          4.2535368624       -1.5344141146       -0.6249198999
 S          5.0398912163       -0.7884600119        0.6555130736
 O          6.4324299568       -0.7122807226        0.2763061009
 O          4.7397750072       -1.5099899004        1.8643016244
 C          4.3353238899        0.8491176926        0.6967003738
 C          3.0670510246        1.0131950891        1.2162226817
 C          2.4693133376        2.2618384820        1.1449691343
 C          3.1502849944        3.3199393180        0.5630144058
 C          4.4283740020        3.1415190732        0.0533999951
 C          5.0249049858        1.8926509011        0.1096629365
 H          6.0120148511        1.7059090717       -0.2818625335
 H          4.9548826988        3.9688622237       -0.3949395996
 H          2.6791931489        4.2889465941        0.5053255127
 H          1.4649035017        2.3765626507        1.5209784530
 H          2.5521367850        0.1779208747        1.6625916346
 H          4.4738691619       -1.0314034211       -1.4742562603
 H          3.1784531423       -3.3550491487        0.9106393436
 H          0.7461664274       -3.7490838367        1.2298570275
 H         -0.8935118167       -2.3153160516        0.0880074522
 H         -0.8063550706       -0.7371273352       -2.4602867791
 C          0.1259146585        1.1249415688       -1.9591490681
 C          0.7419619039        1.3243305293       -3.3112333274
 C         -0.5907150502        1.9330591327       -2.9974993354
 H         -0.6549687520        3.0026031711       -2.8664099952
 H         -1.4715587910        1.4941981777       -3.4432513998
 H          1.5947849582        1.9811918058       -3.3971744787
 H          0.7629372314        0.4799691899       -3.9839872578
 H          0.5556896518        1.6580184575       -1.1181373739
