  62
        -98.94081408
 C         -2.5904567737       -1.3232510137        0.2184349661
 C         -2.3966791917       -0.2299931819       -0.6637814568
 C         -3.5079095087        0.7339346117       -0.7445857142
 C         -4.6206407156        0.5320526245       -0.0178307857
 C         -5.8008447052        1.4575907873        0.0272854664
 C         -5.6565148672        2.4851330250        1.1585365099
 C         -4.3003392271        3.1904480794        1.1837702669
 H         -3.5216231315        2.4624929819        1.4235510546
 H         -4.3252386689        3.9141479276        2.0012995311
 C         -3.9335486924        3.9088756826       -0.1222863544
 H         -3.5329065724        4.8951877208        0.1209952240
 H         -4.8292698090        4.0626657728       -0.7252891551
 C         -2.8738129615        3.1953047191       -0.9642623156
 H         -2.0061162150        2.9577027855       -0.3424581775
 H         -2.5350335846        3.8859872108       -1.7414849543
 C         -3.3315800466        1.9094382801       -1.6642249320
 H         -2.5481386869        1.6231207979       -2.3724533275
 H         -4.2483850088        2.1021734377       -2.2254902721
 H         -5.7920768346        1.9708754895        2.1127205909
 H         -6.4514837464        3.2258242253        1.0553225619
 H         -5.8943577576        1.9659421231       -0.9303372336
 H         -6.6983386988        0.8618645010        0.2020414243
 O         -4.7752383828       -0.5321736829        0.8097441696
 C         -3.7635779793       -1.4634799148        0.9677843503
 O         -4.0253492685       -2.3616915117        1.7921219527
 H          0.5899023436       -1.9305661715       -1.2166292730
 C          0.7655200712       -1.5476925006       -0.2234777996
 C         -0.2055757355       -1.7039794665        0.7516571896
 C          0.0236612634       -1.1689091181        2.0154823418
 C          1.2013404916       -0.5013066346        2.2949371696
 C          2.1672275346       -0.3413868822        1.3166122688
 C          1.9367489950       -0.8513582063        0.0463122562
 N          2.9020022385       -0.6830712533       -0.9592378262
 S          3.6792892605        0.7951309930       -1.1108652564
 O          2.8638570805        1.8964379476       -0.6551920920
 O          4.1209560342        0.8461810535       -2.4879640954
 C          5.1073010175        0.6177553745       -0.0589898965
 C          5.3925762401        1.5836944148        0.8858799545
 C          6.5157852498        1.4309649726        1.6840653692
 C          7.3307706653        0.3211476124        1.5231827411
 C          7.0324007393       -0.6388899228        0.5676669680
 C          5.9116506582       -0.4914238226       -0.2335952759
 H          5.6467441914       -1.2126382594       -0.9884675578
 H          7.6685272128       -1.5007022544        0.4453993288
 H          8.2036319662        0.2039969601        2.1458620330
 H          6.7491271004        2.1768511919        2.4269021737
 H          4.7275163169        2.4277701254        0.9792468814
 H          2.6046795549       -1.0247767799       -1.8618542113
 H          3.0799814993        0.1933054447        1.5225770052
 H          1.3683452036       -0.0957069332        3.2813501221
 H         -0.7398150025       -1.2751950919        2.7743189372
 C         -1.5226762321       -2.3787310429        0.4631443234
 H         -1.8456108783       -2.8966050754        1.3801575755
 C         -1.4192425014       -3.4441591867       -0.6183545328
 C         -2.6592351859       -4.0145312872       -1.2380753147
 C         -1.7215075567       -3.1873074881       -2.0626299338
 H         -1.1169529332       -3.6886140240       -2.8049662517
 H         -2.0254734899       -2.1933402138       -2.3499406264
 H         -3.6036111175       -3.5781021060       -0.9462133122
 H         -2.7054571407       -5.0779616227       -1.4176078497
 H         -0.6176334418       -4.1464500783       -0.4095676898
 O         -1.3660729255       -0.0520854441       -1.3640538316
