  62
        -98.93576940
 C         -2.3114610068       -1.4872281141        0.1667804344
 C         -2.4045437304       -0.3822916044       -0.7098949157
 C         -3.3201801448        0.7061589247       -0.3103469761
 C         -4.0264732956        0.5895687275        0.8277500962
 C         -5.0016204690        1.5595008238        1.4459890834
 C         -5.9952152659        2.2477734411        0.4978566278
 C         -5.7056553083        3.7351168611        0.2874980550
 H         -6.6314529436        4.2331405540       -0.0087426333
 H         -5.3941812529        4.1664964445        1.2410579705
 C         -4.6532503460        4.0492418760       -0.7744463901
 H         -5.0669130745        3.8482883058       -1.7650483068
 H         -4.4392494749        5.1193514619       -0.7226741656
 C         -3.3377659069        3.2801173945       -0.6372119550
 H         -3.0370157256        3.2173892334        0.4083489217
 H         -2.5603355952        3.8475743309       -1.1541204787
 C         -3.3806384231        1.8747257456       -1.2561108102
 H         -4.2653854707        1.7726772184       -1.8910710249
 H         -2.5185552823        1.7415051214       -1.9172451757
 H         -6.0183702793        1.7265545699       -0.4576601448
 H         -6.9894017715        2.1590592385        0.9386626539
 H         -5.5451822904        0.9744918260        2.1914340145
 H         -4.4329284124        2.3127672428        1.9974752198
 O         -3.9137013530       -0.5008089069        1.6387239066
 C         -3.0558397530       -1.5418721428        1.3484114026
 O         -3.0503502084       -2.4531459908        2.1993242491
 H          0.3419193529       -1.1975446662       -1.6133715241
 C          0.7699155772       -1.4479648329       -0.6550426226
 C          0.0359074675       -2.2074207029        0.2443760576
 C          0.5893199242       -2.4796564241        1.4912373543
 C          1.8440567599       -2.0026863062        1.8252832346
 C          2.5672814332       -1.2348838549        0.9293560877
 C          2.0170209998       -0.9466475000       -0.3119976545
 N          2.7322546000       -0.1380792361       -1.2180843475
 S          3.1813075369        1.3827053253       -0.6563197720
 O          2.2808882854        1.8606082189        0.3683546201
 O          3.3098173994        2.2075569265       -1.8382367970
 C          4.8011290145        1.1109516893        0.0329181119
 C          5.7654582840        0.5413866314       -0.7756045226
 C          7.0330386778        0.3299546128       -0.2573640600
 C          7.3143854175        0.6924930616        1.0516352671
 C          6.3363572721        1.2663900063        1.8493051599
 C          5.0656987290        1.4794291431        1.3373170857
 H          4.2710550438        1.9157099281        1.9214870839
 H          6.5564442707        1.5476067416        2.8666793397
 H          8.3017116559        0.5267485082        1.4528230035
 H          7.7963435006       -0.1161825589       -0.8742238122
 H          5.5056677964        0.2773127204       -1.7870466400
 H          2.2623529902       -0.0441526770       -2.1083832282
 H          3.5395462305       -0.8479750124        1.1881223260
 H          2.2608727174       -2.2246641198        2.7959079009
 H          0.0139496708       -3.0516187309        2.2053937717
 C         -1.3689400147       -2.6582278158       -0.0764158216
 H         -1.6531447091       -3.4226288245        0.6585497835
 C         -1.5037409308       -3.2521357939       -1.4633365293
 C         -0.9516363869       -4.6208013350       -1.7215014800
 C         -2.4340619237       -4.4069964290       -1.6748868200
 H         -2.9931944630       -4.4543166883       -2.5973439135
 H         -2.9773020470       -4.7752994939       -0.8167114218
 H         -0.4882795592       -5.1350174780       -0.8931291428
 H         -0.4903096144       -4.8186821350       -2.6767767317
 H         -1.4388821132       -2.5217740233       -2.2586849436
 O         -1.7624211124       -0.2827127626       -1.7906556457
