  62
        -98.93718275
 C          2.4364318691        0.9907175380       -0.1400675566
 C          3.5860371711        0.8610723028        0.6709388956
 C          4.6502102565       -0.0378987472        0.1836607558
 C          4.4699332290       -0.6759928481       -0.9880316884
 C          5.3849919913       -1.6653504361       -1.6593788284
 C          5.3402159167       -3.0542137020       -1.0017757177
 C          5.3674683633       -3.0444248649        0.5243891751
 H          5.2204592553       -4.0725980125        0.8655568401
 H          4.5244029507       -2.4577699275        0.8939705207
 C          6.6605181063       -2.5259348294        1.1492386360
 H          7.4958615811       -3.1403143546        0.8059134323
 H          6.5739443095       -2.6585883140        2.2307624590
 C          6.9934870957       -1.0574936619        0.8770217218
 H          7.3965093192       -0.9251087385       -0.1234054842
 H          7.7882670683       -0.7701037010        1.5716728884
 C          5.8394779135       -0.0880385668        1.1126333931
 H          6.2405895082        0.9326861675        1.1313282040
 H          5.4314641447       -0.2535922790        2.1163550997
 H          6.1786147079       -3.6417759697       -1.3796597642
 H          4.4153577316       -3.5452025678       -1.3141316066
 H          6.3998108848       -1.2795739882       -1.6824121588
 H          5.0410942152       -1.7589429252       -2.6917937662
 O          3.3403703579       -0.5206635342       -1.7367118300
 C          2.3022055128        0.3035977794       -1.3455140059
 O          1.3442450403        0.3410035351       -2.1409068168
 O          3.7225564049        1.4660003008        1.7693140099
 C          1.3114113950        1.9004881271        0.3198262407
 C          0.0535225218        1.0891403123        0.5060726284
 C          0.0678109927        0.0422978650        1.4251292816
 C         -1.0528606780       -0.7393351196        1.6247692532
 C         -2.2141385536       -0.4985466786        0.9101985788
 C         -2.2427647403        0.5460560289       -0.0020472320
 C         -1.1155634737        1.3371221919       -0.1937213480
 H         -1.1549453433        2.1429242959       -0.9098819400
 N         -3.4106425237        0.7880068174       -0.7415717268
 S         -4.8902583773        0.8175660960        0.0434999595
 O         -5.7487174504        1.6179312102       -0.8022614888
 O         -4.7541594991        1.2535605003        1.4139658784
 C         -5.4422988671       -0.8744046405       -0.0078171135
 C         -5.4876695931       -1.5087524396       -1.2337350262
 C         -5.9271479134       -2.8215908199       -1.2916317221
 C         -6.3144828230       -3.4733281989       -0.1301181612
 C         -6.2664302734       -2.8214948066        1.0925231714
 C         -5.8268885748       -1.5083609074        1.1573359226
 H         -5.7674983838       -0.9637199668        2.0862596946
 H         -6.5681685568       -3.3298099122        1.9942664789
 H         -6.6560815164       -4.4952535854       -0.1786044714
 H         -5.9651441925       -3.3319861816       -2.2405922526
 H         -5.1798435773       -0.9681801554       -2.1132898559
 H         -3.3293893109        1.5421475619       -1.4074053373
 H         -3.0907565890       -1.1080596963        1.0565904450
 H         -1.0240384225       -1.5473869777        2.3400472768
 H          0.9765311190       -0.1493639446        1.9796164443
 H          1.6239206880        2.2748402641        1.3055902103
 C          1.1582357823        3.0770905093       -0.6199149222
 C          0.5167138698        4.3426843853       -0.1368796968
 C          1.9925825934        4.3004706391       -0.3932333824
 H          2.3827060985        4.8247224410       -1.2527155214
 H          2.6607732274        4.2958023494        0.4553906538
 H         -0.1062442975        4.9009423505       -0.8196814846
 H          0.1794795586        4.3711641830        0.8883681742
 H          0.9879810846        2.7749352944       -1.6472992408
