  62
        -98.93925156
 C         -2.5551184928       -0.2890698433        0.0498509132
 C         -2.1957997927       -1.2906764267       -0.8801373923
 C         -1.5473859847       -2.4944736524       -0.3360270803
 C         -1.3486392169       -2.5910789765        0.9900670031
 C         -0.7640401196       -3.7366399905        1.7802143051
 C          0.4510424795       -4.4675697296        1.1987108281
 C          1.4519438705       -3.5712380537        0.4551490153
 H          1.2319570609       -2.5177379672        0.6400607175
 H          2.4554291718       -3.7633927699        0.8408527646
 C          1.4749687655       -3.8246388247       -1.0537361731
 H          2.4119804140       -3.4337252619       -1.4584894310
 H          1.4587743293       -4.9026312022       -1.2333929101
 C          0.3422753658       -3.1676783528       -1.8403967196
 H          0.4334591234       -3.4763927379       -2.8853516948
 H          0.4696282394       -2.0805067277       -1.8178017112
 C         -1.0793055678       -3.4965513789       -1.3518520452
 H         -1.7594438837       -3.4002611036       -2.2029863020
 H         -1.1392275632       -4.5146751150       -0.9741343920
 H          0.9525463232       -4.9536417788        2.0376331553
 H          0.1168374503       -5.2601020843        0.5303507633
 H         -0.4972541566       -3.3020634650        2.7467211476
 H         -1.5635068018       -4.4619662463        1.9618024734
 O         -1.7344816865       -1.6103980382        1.8547080435
 C         -2.2874238516       -0.4221453795        1.4110419721
 O         -2.5111494922        0.4092911627        2.3127869193
 H         -0.4612961461        0.8080483464       -0.6624509466
 C         -0.7377853853        1.8020806325       -0.3436047597
 C         -2.0820878991        2.1198735793       -0.1949405871
 C         -2.4142162025        3.4160857538        0.1742383865
 C         -1.4191625347        4.3530729157        0.4039460879
 C         -0.0824850547        4.0177284704        0.2969228405
 C          0.2599148382        2.7188802405       -0.0684213712
 N          1.6066954489        2.3142350694       -0.1108724355
 S          2.0166769399        0.7086849166       -0.3632846718
 O          1.7748585911        0.3123800457       -1.7352402498
 O          1.3962869663       -0.0870708202        0.6645311087
 C          3.7730787641        0.8047284792       -0.0765014751
 C          4.2246662865        0.8495623325        1.2287582748
 C          5.5863817619        0.9512435129        1.4643612133
 C          6.4697580798        1.0070061489        0.3962357691
 C          6.0025562873        0.9579802088       -0.9083106127
 C          4.6412720061        0.8567587877       -1.1500764280
 H          4.2320697675        0.8057456183       -2.1462674218
 H          6.6915341064        0.9977400416       -1.7365414282
 H          7.5291530714        1.0858537221        0.5824666258
 H          5.9528784071        0.9859282664        2.4776429738
 H          3.5000812801        0.7938161308        2.0248006614
 H          2.2466329788        2.9755858097       -0.5234015556
 H          0.6898861599        4.7424633490        0.5002715833
 H         -1.6918345351        5.3590584622        0.6849989532
 H         -3.4501453098        3.6926361383        0.2853056171
 C         -3.0964310339        1.0325025093       -0.4636534933
 H         -3.1826457453        0.9089177490       -1.5547153689
 C         -4.4666716777        1.3324041926        0.1049885874
 C         -5.4647043229        2.1125829414       -0.6962508989
 C         -5.6599311113        0.6425551222       -0.4832152798
 H         -6.4445070341        0.3139464348        0.1814075676
 H         -5.4845094544       -0.0242196680       -1.3150729375
 H         -6.1212446631        2.7947446109       -0.1776050249
 H         -5.1672996090        2.4444902863       -1.6796121027
 H         -4.4470967525        1.4709621971        1.1798775810
 O         -2.4135259869       -1.1851230522       -2.1196765353
