  62
        -98.94490228
 C         -1.8914399790       -1.0906900363       -0.2153348273
 C         -3.0300173547       -1.1695917476        0.6316205802
 C         -4.2583191203       -0.5416810472        0.1361153392
 C         -4.2625636863        0.0466959428       -1.0733492886
 C         -5.4400508581        0.7103919491       -1.7338510133
 C         -5.6638474512        2.1642526652       -1.2956429721
 C         -6.2170165357        2.3394023805        0.1192538371
 H         -6.5314419981        3.3807905095        0.2132717267
 H         -7.1057833032        1.7192385818        0.2400997464
 C         -5.2113997243        2.0255115957        1.2359583154
 H         -4.1985885634        2.0250637534        0.8257822764
 H         -5.2482778093        2.8140856968        1.9909979483
 C         -5.4547015752        0.6986248518        1.9552829365
 H         -4.6637327921        0.5624515421        2.6971840074
 H         -6.4095410973        0.7386093920        2.4841419692
 C         -5.4578537557       -0.5286128579        1.0345522086
 H         -6.3743160235       -0.5542937970        0.4453134434
 H         -5.4161426309       -1.4249980504        1.6580759604
 H         -4.7198635281        2.7067482391       -1.3872894137
 H         -6.3723401356        2.6105032668       -1.9973544483
 H         -5.2404510151        0.7013410444       -2.8075965623
 H         -6.3426521169        0.1290707657       -1.5433524924
 O         -3.1604021601        0.0854957952       -1.8646896645
 C         -1.9492332683       -0.4555246822       -1.4556504343
 O         -1.0367567560       -0.3001794286       -2.2936308238
 O         -3.0191475328       -1.7501291483        1.7490909089
 C         -0.6154150715       -1.7297109803        0.3071906068
 C          0.3279336333       -0.6968649322        0.8760628775
 C          0.6587057026       -0.6970712645        2.2258381458
 C          1.5455817862        0.2356406138        2.7361073824
 C          2.1203561062        1.1853441333        1.9111268339
 C          1.7903151425        1.1965315066        0.5619584047
 C          0.9075178335        0.2571261645        0.0512634610
 H          0.6508584794        0.2760072063       -0.9974634907
 N          2.3832001924        2.1517825151       -0.2903171167
 S          4.0594863064        2.1197792877       -0.3362720788
 O          4.5782293802        2.7940447968        0.8275097763
 O          4.4288916414        2.6859658333       -1.6141561919
 C          4.4655345938        0.3845173527       -0.2674789373
 C          4.1851488847       -0.3901103965       -1.3755050706
 C          4.4172026562       -1.7542013291       -1.3153774102
 C          4.9143032118       -2.3186097457       -0.1505884452
 C          5.1915903616       -1.5268946090        0.9527208262
 C          4.9638182060       -0.1611474358        0.8978229738
 H          5.1650515587        0.4905468688        1.7319800054
 H          5.5789238091       -1.9691371655        1.8562722383
 H          5.0869427003       -3.3823187257       -0.1037420038
 H          4.2047558144       -2.3700288317       -2.1747678552
 H          3.8005433309        0.0825200408       -2.2654990134
 H          2.0105964401        2.1187945900       -1.2290149153
 H          2.8171904287        1.9173558538        2.2864598523
 H          1.7920571412        0.2230080986        3.7867261864
 H          0.2063557583       -1.4292756631        2.8785655018
 H         -0.9408926197       -2.3747930959        1.1341186757
 C          0.0987602864       -2.5880547089       -0.7196972544
 C          1.0965525693       -3.6006001712       -0.2466215490
 C         -0.2191058582       -4.0491712268       -0.8070026085
 H         -0.2370508344       -4.5140327064       -1.7813665794
 H         -0.9587117669       -4.4418092833       -0.1244417843
 H          1.9874170495       -3.7569273978       -0.8343220259
 H          1.2508207933       -3.6886817838        0.8178616047
 H          0.3066194463       -2.0689310337       -1.6459402363
