  62
        -98.94470034
 C         -1.9809691785        0.8992493529        0.4588647164
 C         -3.0502643699        1.2450061714       -0.4048439985
 C         -4.3519958122        0.6408010929       -0.0956879427
 C         -4.4573719962       -0.1889374331        0.9583547315
 C         -5.7069045868       -0.9217934397        1.3501933964
 C         -5.7733973383       -2.3021202029        0.6815896347
 C         -5.5082500292       -2.2733990917       -0.8237735956
 H         -4.4716595541       -1.9750163664       -0.9975771169
 H         -5.6126063150       -3.2965577658       -1.1914193061
 C         -6.4423671015       -1.3477551080       -1.6157974247
 H         -6.7808610395       -1.8747922507       -2.5103391137
 H         -7.3274639696       -1.1180102149       -1.0214317336
 C         -5.7946376715       -0.0438959858       -2.0854471473
 H         -6.4641689656        0.4260122221       -2.8107573415
 H         -4.8573738994       -0.2663427118       -2.6016674266
 C         -5.5079679567        0.9908206449       -0.9899987876
 H         -5.2328426486        1.9279063899       -1.4827133308
 H         -6.4114972815        1.1642897995       -0.4021065664
 H         -6.7594374357       -2.7302160450        0.8712111615
 H         -5.0265397532       -2.9490874665        1.1478199864
 H         -6.5741577283       -0.3278665030        1.0683134946
 H         -5.7038513132       -1.0527996383        2.4336265329
 O         -3.4116398540       -0.4942444224        1.7669975118
 C         -2.1467284489        0.0284185331        1.5357931529
 O         -1.2852294559       -0.3488272155        2.3528405976
 O         -2.9202736611        2.0228211389       -1.3871521943
 C         -0.6074774352        1.4791291906        0.1643805713
 C          0.3002417374        0.3604348032       -0.2807837937
 C          0.1768234080       -0.1376681252       -1.5750719328
 C          0.9743801156       -1.1781056825       -2.0130611227
 C          1.9128204140       -1.7454959702       -1.1682863890
 C          2.0376365410       -1.2599598014        0.1257303557
 C          1.2426303458       -0.2083887741        0.5613409923
 H          1.3438355093        0.1490748095        1.5736947832
 N          3.0090416514       -1.8223039974        0.9804196480
 S          4.5895984643       -1.7022911689        0.4337907261
 O          4.8261816271       -2.7117530679       -0.5671690302
 O          5.4199773724       -1.7717696463        1.6151663266
 C          4.6703903326       -0.0801764825       -0.3040570729
 C          4.6383624650        0.0514130203       -1.6772348272
 C          4.6125493672        1.3231779151       -2.2270029587
 C          4.6136790451        2.4342274494       -1.3983598738
 C          4.6488368700        2.2852750377       -0.0202594333
 C          4.6728332278        1.0165743621        0.5348350030
 H          4.7059802749        0.8612871539        1.6013657964
 H          4.6514978746        3.1521308364        0.6208818313
 H          4.5876799268        3.4233357964       -1.8279641246
 H          4.5856463048        1.4425777914       -3.2981160367
 H          4.6383406267       -0.8382451076       -2.2850440275
 H          2.9396864876       -1.4871039188        1.9307410886
 H          2.5499475598       -2.5538598494       -1.4892566790
 H          0.8667444670       -1.5515612344       -3.0200647128
 H         -0.5603409153        0.3020126050       -2.2325331398
 H         -0.7574896957        2.1536171291       -0.6895365239
 C         -0.0614996724        2.2788438361        1.3286568447
 C          1.1435538311        3.1455501875        1.1185719706
 C         -0.2027054644        3.7700652799        1.3255466256
 H         -0.4025742499        4.2695364716        2.2617678319
 H         -0.6935302790        4.2231265613        0.4769153580
 H          1.8696811768        3.2180367135        1.9137161585
 H          1.5709499667        3.1689824427        0.1276183033
 H         -0.1645479888        1.7733708893        2.2814668409
