  62
        -98.93757960
 C         -2.2451760681       -0.8048483786        0.0432875830
 C         -3.5727747454       -1.2254447521        0.3152189632
 C         -4.6405897603       -0.4730532112       -0.3517205982
 C         -4.3249267839        0.5542617167       -1.1605458091
 C         -5.2960918466        1.4005655660       -1.9382779339
 C         -5.9093548093        2.5512192792       -1.1285232313
 C         -6.9403120703        2.1310648334       -0.0801755375
 H         -7.6931870620        1.4955412510       -0.5473766595
 H         -7.4436597202        3.0397225907        0.2559513600
 C         -6.3453694814        1.4159380113        1.1409482565
 H         -6.7756524321        1.8343810840        2.0535910560
 H         -5.2691234307        1.5997942650        1.1814945312
 C         -6.5913050127       -0.0924993335        1.1746411527
 H         -7.6621172869       -0.2872205970        1.2657164676
 H         -6.0980136617       -0.5007509512        2.0603462928
 C         -6.0609936910       -0.8468791754       -0.0517311335
 H         -6.6952661758       -0.6528214190       -0.9164116298
 H         -6.0837921465       -1.9170849450        0.1677460822
 H         -6.3966912161        3.2243801400       -1.8375761948
 H         -5.1018241253        3.1059690738       -0.6450520453
 H         -6.0912687640        0.7708884348       -2.3384868306
 H         -4.7358003754        1.8271835427       -2.7730988311
 O         -3.0408952415        0.9418201906       -1.3803251266
 C         -1.9711195286        0.2960071622       -0.7694301567
 O         -0.8649162022        0.8030583723       -1.0356680517
 O         -3.8510219629       -2.1848894102        1.0821492895
 C         -1.1181100291       -1.5644257079        0.7192237625
 C         -0.1169402150       -0.6047907674        1.3111149262
 C         -0.5400784910        0.2642660926        2.3136238273
 C          0.3328925793        1.1783979318        2.8691839402
 C          1.6465498856        1.2415863350        2.4396547726
 C          2.0837820664        0.3697682443        1.4493031310
 C          1.2041263805       -0.5504044528        0.8960737060
 H          1.5576519998       -1.1956458876        0.1108312860
 N          3.4325828215        0.3869022206        1.0480479904
 S          3.8929946647        0.0836068283       -0.5455749195
 O          3.3439103415        1.0774066661       -1.4410251144
 O          3.6253643865       -1.2954596055       -0.8649122613
 C          5.6539942694        0.3222517540       -0.3802554430
 C          6.2324623217        1.4956219086       -0.8247838698
 C          7.5984108416        1.6723977610       -0.6673217218
 C          8.3581765190        0.6790521501       -0.0685460083
 C          7.7636530466       -0.4942231950        0.3720782601
 C          6.3990363669       -0.6772802445        0.2164641382
 H          5.8951632939       -1.5747972417        0.5347740449
 H          8.3581770645       -1.2654467292        0.8346351932
 H          9.4207522644        0.8188298521        0.0527841938
 H          8.0633139415        2.5820243425       -1.0120681231
 H          5.6028284471        2.2363688163       -1.2912860149
 H          3.9168249058        1.2084299872        1.3859808382
 H          2.3276034120        1.9621600138        2.8669955072
 H         -0.0116767294        1.8533506394        3.6384784699
 H         -1.5707975579        0.2220902690        2.6400159671
 H         -1.6089927999       -2.0985752463        1.5507581915
 C         -0.4760455760       -2.6282754878       -0.1581689384
 C         -1.2474034728       -3.3173532231       -1.2424779018
 C         -0.1320615971       -2.3816577086       -1.5953409147
 H          0.7927495864       -2.7907573515       -1.9766765764
 H         -0.3755239235       -1.4151896177       -2.0095469029
 H         -1.0961890315       -4.3766892146       -1.3852071467
 H         -2.2616197091       -2.9911009622       -1.4215581546
 H          0.2185279446       -3.2476402437        0.4020173765
