  62
        -98.93676618
 C         -2.5706771114       -0.0176885022        0.0622062284
 C         -2.3739277557        1.0676509863        0.9433984434
 C         -1.9070130495        2.3366512897        0.3546365347
 C         -1.6716488728        2.3856408912       -0.9697493593
 C         -1.1667757296        3.5435878113       -1.7904712887
 C          0.3417069322        3.7754160251       -1.6242942264
 C          0.8339825479        3.7689218132       -0.1801875909
 H          0.6302024617        2.7877763021        0.2532139735
 H          1.9212061497        3.8847864719       -0.2065543315
 C          0.2681079996        4.8728163948        0.7109429233
 H          0.4973117688        5.8426534054        0.2636832637
 H          0.7943842489        4.8153516243        1.6671324215
 C         -1.2347250998        4.8117053375        0.9974035760
 H         -1.8136263084        5.2056116171        0.1663227453
 H         -1.4291251778        5.4690505254        1.8499252144
 C         -1.7522162065        3.4304392784        1.3840401287
 H         -1.1156364055        3.0158477195        2.1743324889
 H         -2.7425617846        3.5420661864        1.8419019267
 H          0.5983167701        4.7244290744       -2.0996255502
 H          0.8670157260        2.9741148191       -2.1511547630
 H         -1.7237894311        4.4451523866       -1.5526573029
 H         -1.3656991154        3.2931563183       -2.8351665358
 O         -1.8571133498        1.3048011206       -1.7812634884
 C         -2.2718089310        0.0810109530       -1.2962472241
 O         -2.3535971473       -0.8163330369       -2.1581334327
 O         -2.5716458492        0.9832852248        2.1882346656
 C         -2.9675199689       -1.3713406032        0.6300662873
 C         -1.7984315356       -2.3014626843        0.4180615456
 C         -1.8684059187       -3.5227936300       -0.2375189155
 C         -0.7159869280       -4.2459232562       -0.5001701847
 C          0.5267812266       -3.7644048192       -0.1288731147
 C          0.5993148426       -2.5620920747        0.5575708557
 C         -0.5533529941       -1.8549656516        0.8439357684
 H         -0.4803735859       -0.9046151628        1.3590239416
 N          1.8780149310       -2.0058334897        0.8750641790
 S          2.2597197432       -0.8499459016       -0.3105618014
 O          1.4784408242        0.3520129669       -0.1106457023
 O          2.1530069962       -1.4890090450       -1.5977290483
 C          3.9747775706       -0.5272338830        0.0585217009
 C          4.3518535655        0.6906959046        0.5888497538
 C          5.6883375507        0.9055493727        0.8893005394
 C          6.6170809415       -0.0977305681        0.6595833181
 C          6.2220083477       -1.3167591434        0.1279977562
 C          4.8884959585       -1.5367157724       -0.1762820637
 H          4.5338159124       -2.4628479322       -0.5967197699
 H          6.9473861478       -2.0942470087       -0.0494989567
 H          7.6558239524        0.0718905725        0.8951605412
 H          5.9976749211        1.8527546812        1.3010392548
 H          3.5939063958        1.4415140597        0.7473004184
 H          1.8409204310       -1.5067019284        1.7565745738
 H          1.4335750339       -4.2924455809       -0.3735092920
 H         -0.7871148074       -5.1855428893       -1.0267044648
 H         -2.8233084540       -3.8964984198       -0.5698228094
 H         -3.0988131316       -1.2113624423        1.7104173017
 C         -4.2681089438       -1.8685008040        0.0411462659
 C         -5.1042606631       -2.8541350738        0.8002916939
 C         -5.5606008376       -1.4337798310        0.6621555936
 H         -6.3960424463       -1.2190336005        0.0131665794
 H         -5.5032691713       -0.7898281618        1.5275611726
 H         -5.6309877265       -3.6166926510        0.2470966779
 H         -4.7412202615       -3.1780991233        1.7638078099
 H         -4.2324504670       -1.9472214879       -1.0393405968
