  62
        -98.94330013
 C          2.6097606240        0.0742832753       -0.1331456240
 C          2.3417515048        1.1219882261       -1.0451652218
 C          1.9582911214        2.4102055367       -0.4560382014
 C          1.8637549794        2.5183559128        0.8817033197
 C          1.4892836083        3.7731839986        1.6158601333
 C         -0.0181278311        3.8527827221        1.8883508119
 C         -0.8903122688        3.5908608337        0.6604812405
 H         -0.7976977940        2.5392952860        0.3783559358
 H         -1.9277760443        3.7429002132        0.9687166501
 C         -0.5817189763        4.4850952079       -0.5484478994
 H         -1.5266720927        4.8220109072       -0.9800672690
 H         -0.0393034646        5.3738090440       -0.2232040224
 C          0.1980427438        3.7960872690       -1.6702178873
 H         -0.2707021969        2.8355288354       -1.9002098822
 H          0.1297249556        4.4198717561       -2.5656517383
 C          1.6874851503        3.5499351220       -1.3974416485
 H          2.1532638812        4.4691962805       -1.0363364956
 H          2.1602266048        3.2739620890       -2.3447165322
 H         -0.2739539247        3.1085204065        2.6464927312
 H         -0.2400697912        4.8429834830        2.2923741540
 H          2.0198621422        3.7782754082        2.5699762031
 H          1.8079045909        4.6340272788        1.0304476851
 O          2.0936927982        1.4806885578        1.7259305428
 C          2.4346877536        0.2272659010        1.2424971102
 O          2.5714025009       -0.6423313104        2.1247612219
 O          2.4255187807        0.9855256778       -2.2974412683
 C          2.9743190059       -1.2977462045       -0.6792744521
 C          1.8262356436       -2.2280044169       -0.3761255273
 C          1.9360873437       -3.4095898951        0.3436339574
 C          0.8047755507       -4.1386436391        0.6731546953
 C         -0.4551411718       -3.7037903526        0.3025579950
 C         -0.5680911462       -2.5412869362       -0.4449976508
 C          0.5627020788       -1.8253919150       -0.7913573124
 H          0.4612003017       -0.9057954864       -1.3551022416
 N         -1.8646729839       -2.0373836822       -0.7701942142
 S         -2.3111214985       -0.9296699861        0.4386299753
 O         -1.4919214585        0.2602991111        0.3505495086
 O         -2.3031639307       -1.6290191668        1.6982175458
 C         -3.9886437684       -0.5511735987       -0.0338334844
 C         -4.2822339928        0.6707419607       -0.6066201385
 C         -5.5867321597        0.9313301191       -0.9972553110
 C         -6.5672532926       -0.0314363418       -0.8134821354
 C         -6.2560939668       -1.2544682971       -0.2373660842
 C         -4.9547944587       -1.5203793299        0.1567151301
 H         -4.6656365562       -2.4515369987        0.6145138112
 H         -7.0218779260       -1.9997320689       -0.0951107738
 H         -7.5809591637        0.1735824398       -1.1194795251
 H         -5.8308184722        1.8821986409       -1.4429767366
 H         -3.4877899886        1.3906870887       -0.7250031336
 H         -1.8316241194       -1.5136138168       -1.6377200799
 H         -1.3455186609       -4.2359862607        0.5939680482
 H          0.9065767447       -5.0468049134        1.2476966291
 H          2.9058660123       -3.7474437860        0.6709020741
 H          3.0394083568       -1.1705796488       -1.7699824455
 C          4.3119254865       -1.7718381423       -0.1579239400
 C          5.0983994912       -2.7842802494       -0.9345074029
 C          5.5597795632       -1.3599246432       -0.8779605252
 H          6.4356997341       -1.1221527152       -0.2935318891
 H          5.4448748209       -0.7478247670       -1.7605885949
 H          5.6618179869       -3.5268206438       -0.3903889309
 H          4.6731180384       -3.1427045100       -1.8596070665
 H          4.3486600471       -1.8112462411        0.9245245301
