  62
        -98.94522018
 C          1.4846506870        1.2673559448       -0.3443403461
 C          2.8236296444        1.3799680985        0.1135642450
 C          3.8031926732        0.4845886667       -0.5087110896
 C          3.4060418791       -0.3720453412       -1.4666217696
 C          4.2851434861       -1.3435134321       -2.2066137433
 C          4.5165721768       -2.6648316205       -1.4608557838
 C          5.4458929657       -2.5741355289       -0.2496614978
 H          5.6940896109       -3.5971289667        0.0401648080
 H          6.3749475053       -2.0837433499       -0.5420899958
 C          4.8393413237       -1.8522662642        0.9619267216
 H          3.7533585006       -1.7992491285        0.8491669172
 H          5.0364355878       -2.4317221049        1.8668337882
 C          5.3834515494       -0.4432298978        1.1987807715
 H          6.4453329605       -0.4983280500        1.4485750101
 H          4.8568617698       -0.0135355801        2.0547096709
 C          5.2097044767        0.5092849585        0.0087819276
 H          5.4205090465        1.5257417684        0.3498956701
 H          5.9115027934        0.2528723290       -0.7844611380
 H          3.5480002642       -3.0636549959       -1.1486881594
 H          4.9514154948       -3.3696928998       -2.1734523107
 H          3.7799384282       -1.5646701311       -3.1492839380
 H          5.2449734627       -0.8754573202       -2.4272995269
 O          2.1204190917       -0.4342267850       -1.8984229315
 C          1.1241914941        0.3569020167       -1.3384122410
 O          0.0008686872        0.1606471656       -1.8383678495
 O          3.1849586030        2.2011269832        0.9984541464
 C          0.4532553728        2.1492265154        0.3433262056
 C         -0.2019500718        1.3443390067        1.4414772197
 C          0.2719946143        1.4447022024        2.7458302186
 C         -0.2880889846        0.6874630232        3.7579808189
 C         -1.3249456152       -0.1866040771        3.4868024894
 C         -1.8023341178       -0.3004962140        2.1852367187
 C         -1.2465814626        0.4704109116        1.1737289775
 H         -1.6038471237        0.3585783365        0.1646786622
 N         -2.8667907803       -1.1638587683        1.8949139979
 S         -2.9329974476       -2.0102510923        0.4482912067
 O         -3.8009488641       -3.1327720036        0.7464493629
 O         -1.6146389545       -2.3448237541       -0.0343686675
 C         -3.8011118248       -0.9073911769       -0.6458130848
 C         -5.1062867962       -0.5968584959       -0.3144004191
 C         -5.8203666812        0.2622700854       -1.1325139431
 C         -5.2197495369        0.7937059867       -2.2643997930
 C         -3.9111020033        0.4684009978       -2.5840266770
 C         -3.1893523762       -0.3929014563       -1.7703426296
 H         -2.1619493216       -0.6464485408       -1.9831779680
 H         -3.4385923275        0.8824434457       -3.4608142495
 H         -5.7734925254        1.4651768354       -2.9017272281
 H         -6.8387511994        0.5166448868       -0.8866512618
 H         -5.5355144315       -1.0392421054        0.5690338451
 H         -3.1785453200       -1.7291483170        2.6710596088
 H         -1.7609169453       -0.7827585411        4.2742055733
 H          0.0888405144        0.7736914311        4.7659930554
 H          1.0986295306        2.1088978922        2.9530453372
 H          1.0373556262        2.9464252485        0.8237238591
 C         -0.5484817470        2.7877824237       -0.5947478639
 C         -1.3645671244        3.9429277756       -0.0992429240
 C         -0.2872414570        4.1678667024       -1.1162098973
 H         -0.5730865014        4.3955365315       -2.1320462580
 H          0.6201816868        4.6605686072       -0.7983946491
 H         -2.3939963023        4.0173622587       -0.4136696522
 H         -1.1860975389        4.2821066422        0.9100099367
 H         -1.0234374809        2.0895067421       -1.2703502097
