  62
        -98.94015366
 C         -2.4933499269       -1.1618155004       -0.0159175824
 C         -2.5872328466        0.0025438710       -0.8155751190
 C         -3.9427484011        0.5401447440       -1.0033675022
 C         -4.9879479132       -0.0920885519       -0.4392129703
 C         -6.4098129216        0.3849332052       -0.4946569417
 C         -6.7362574114        1.2924964328        0.7000455593
 C         -5.7073977904        2.3982516985        0.9367265472
 H         -6.0562428357        2.9901526666        1.7857066610
 H         -4.7571293641        1.9456927846        1.2295617471
 C         -5.4769355566        3.3200660154       -0.2688531868
 H         -6.3059310113        3.2257227020       -0.9711354761
 H         -5.4625953310        4.3549620266        0.0793106098
 C         -4.1586548882        3.0805977725       -1.0072134781
 H         -3.9972000441        3.9147048347       -1.6952621889
 H         -3.3311455539        3.0808525041       -0.2929610372
 C         -4.0813906341        1.7879271129       -1.8292221519
 H         -4.9465548864        1.7191304092       -2.4916925279
 H         -3.1786398109        1.8396317286       -2.4450416088
 H         -7.7196249552        1.7370825551        0.5368719110
 H         -6.7872136496        0.6747485762        1.5995977504
 H         -6.5711887930        0.9217379462       -1.4273099117
 H         -7.0664998054       -0.4861175593       -0.4680370532
 O         -4.8591489365       -1.2233652050        0.3009706850
 C         -3.6130325872       -1.7769690574        0.5433075592
 O         -3.6330521792       -2.7976866931        1.2609900285
 O         -1.5942627733        0.5680671592       -1.3436677842
 C         -1.1345130379       -1.7782246381        0.2640380596
 C         -0.2401134066       -0.7578442104        0.9257582348
 C         -0.7013747796       -0.1100424320        2.0697122379
 C          0.0775860373        0.8332401091        2.7101313460
 C          1.3375515142        1.1446740634        2.2296675208
 C          1.8066793350        0.5061110754        1.0881452007
 C          1.0209097476       -0.4428899480        0.4473423532
 H          1.4112101686       -0.9233903823       -0.4336974153
 N          3.0659871429        0.8312184002        0.5603888161
 S          3.9680358187       -0.3527640847       -0.2312668482
 O          3.4855349533       -0.4952957312       -1.5815105912
 O          4.0110418425       -1.5600553601        0.5635233931
 C          5.5675864240        0.4358715600       -0.2473460931
 C          6.5222463958        0.0649474681        0.6804302345
 C          7.7504419005        0.7076691348        0.6721964818
 C          8.0003553876        1.7067521944       -0.2563750935
 C          7.0323903851        2.0676962010       -1.1821981470
 C          5.8031461033        1.4281383920       -1.1805510822
 H          5.0243051772        1.6680739061       -1.8856959238
 H          7.2312518839        2.8432808329       -1.9041453617
 H          8.9564483021        2.2058980344       -0.2607528942
 H          8.5063554642        0.4269638625        1.3878193861
 H          6.2853216985       -0.7219786901        1.3782758686
 H          3.6346436496        1.3699178577        1.1991043735
 H          1.9471723321        1.8826679963        2.7285268880
 H         -0.2955569851        1.3275493014        3.5947018315
 H         -1.6849805165       -0.3583683069        2.4465986197
 H         -1.3100158769       -2.5931489677        0.9822495319
 C         -0.5498035336       -2.3666700149       -1.0021776069
 C          0.4458844741       -3.4830455323       -0.9203796383
 C         -0.9430697636       -3.7517399890       -1.4149397294
 H         -1.0866606801       -3.9554904362       -2.4653814098
 H         -1.6224858715       -4.2874447033       -0.7677769706
 H          1.2620809504       -3.4968586796       -1.6275652369
 H          0.7164263166       -3.8398669469        0.0622921460
 H         -0.4215755111       -1.6287252410       -1.7864742483
