  62
        -98.93908268
 C         -2.3464086791       -0.7843515684        0.5883644826
 C         -3.4279657892       -0.9844121907       -0.3048011368
 C         -4.6716036192       -0.2750690599        0.0263626713
 C         -4.7359596392        0.5035506230        1.1203296192
 C         -5.9375231492        1.2760545043        1.5927935972
 C         -6.1105607492        2.6398963925        0.9101633036
 C         -6.5762915092        2.5851819786       -0.5454222063
 H         -7.4677920592        1.9613929884       -0.6170047046
 H         -6.8649948292        3.5997585679       -0.8270915290
 C         -5.5131456092        2.0829973060       -1.5324146349
 H         -5.4902352192        2.7371206137       -2.4069239867
 H         -4.5266107392        2.1388864472       -1.0660701351
 C         -5.7407628892        0.6584652047       -2.0379249312
 H         -6.6627113392        0.6195203131       -2.6222766811
 H         -4.9112859592        0.3928594429       -2.6979383205
 C         -5.8204447492       -0.3987547624       -0.9291601484
 H         -6.7675887092       -0.3161051110       -0.3969403886
 H         -5.7626371392       -1.3866247136       -1.3923601858
 H         -5.1640323992        3.1821822726        0.9700841421
 H         -6.8513825692        3.1998406140        1.4855929521
 H         -6.8377465792        0.6781264439        1.4480548688
 H         -5.7980841292        1.4418660871        2.6632111568
 O         -3.6787946592        0.6653119153        1.9603047288
 C         -2.4695025492        0.0417721846        1.7106781405
 O         -1.5881641292        0.2897240969        2.5597359498
 H          1.4237173608       -0.2949412777        0.8439881613
 C          1.1084714108       -0.2000686604       -0.1852778189
 C         -0.1214354392       -0.7014545415       -0.5848199076
 C         -0.5095149892       -0.5458894950       -1.9115865280
 C          0.3218508808        0.0949875427       -2.8116116997
 C          1.5605286108        0.5688932937       -2.4165312310
 C          1.9552500108        0.4218105472       -1.0921165506
 N          3.1988497008        0.9025270184       -0.6523180518
 S          4.0200877008        0.0113102115        0.5241096405
 O          3.8947154509       -1.4021651292        0.2495316243
 O          3.5863105608        0.4493157650        1.8273683194
 C          5.6956015308        0.5489713108        0.2350227791
 C          6.5210670408       -0.2169046114       -0.5666073589
 C          7.8132247708        0.2212784780       -0.8104093200
 C          8.2545996408        1.4124702095       -0.2540881932
 C          7.4148067408        2.1697960816        0.5492064248
 C          6.1220036208        1.7369894022        0.7981979759
 H          5.4371282308        2.2858176039        1.4236346845
 H          7.7624296608        3.0935243027        0.9828842424
 H          9.2605845308        1.7513148790       -0.4449145741
 H          8.4696138908       -0.3671899236       -1.4309798385
 H          6.1374428808       -1.1404741124       -0.9694398564
 H          3.8058420808        1.1821611864       -1.4107054726
 H          2.2147568408        1.0538066218       -3.1252335822
 H          0.0082146408        0.2130484699       -3.8379352600
 H         -1.4661416292       -0.9327906258       -2.2268136470
 C         -0.9840013791       -1.4349865688        0.4148456844
 H         -0.4891575091       -1.3520857462        1.3928943541
 C         -1.0598182591       -2.9052131898        0.0439636383
 C          0.1654629009       -3.7510454693        0.2097058405
 C         -1.0070155391       -3.9403935569        1.1242623110
 H         -1.6080252191       -4.8306965872        1.0152467034
 H         -0.9184092691       -3.5947820442        2.1444277101
 H          0.3678431009       -4.5118246913       -0.5287086675
 H          1.0540946809       -3.2769808383        0.6022297492
 H         -1.6970135591       -3.1005848621       -0.8082009312
 O         -3.3880873191       -1.7128176934       -1.3314668049
