  62
        -98.94360863
 C         -1.7968165596       -0.8809835695        0.8039838133
 C         -1.9968699296       -0.3908013830       -0.5090814925
 C         -3.3933534444       -0.3486819463       -0.9670486927
 C         -4.3689010554       -0.7917719494       -0.1531792103
 C         -5.8348510446       -0.7543782753       -0.4727223835
 C         -6.4771942598        0.5479990531        0.0251475097
 C         -5.7103385339        1.8078808791       -0.3772454792
 H         -6.2710541247        2.6647822847        0.0026550125
 H         -4.7401438521        1.8111389829        0.1250578457
 C         -5.4970610670        1.9658402696       -1.8892263041
 H         -6.1964883469        1.3275399776       -2.4303414821
 H         -5.7189543078        2.9982981974       -2.1674123436
 C         -4.0722589545        1.6730609877       -2.3634457615
 H         -3.3603744899        2.2406500083       -1.7585730240
 H         -3.9789770021        2.0247272595       -3.3943739188
 C         -3.6518686301        0.1979799577       -2.3427292513
 H         -4.3967200663       -0.4050089700       -2.8657856925
 H         -2.7022515324        0.1162333584       -2.8792283592
 H         -7.4963712977        0.6008225806       -0.3620545331
 H         -6.5297300326        0.5130744063        1.1158820975
 H         -5.9699879628       -0.8506240668       -1.5481513093
 H         -6.3168783981       -1.5990817480        0.0223207900
 O         -4.1323773591       -1.2841613008        1.0902825480
 C         -2.8472832139       -1.3236637722        1.6065689439
 O         -2.7721664130       -1.7650211955        2.7716537439
 H          2.0965442654       -0.1659878172        0.4810176037
 C          1.5061563880        0.6599479034        0.8382392723
 C          0.2309667317        0.4409678064        1.3327647493
 C         -0.4966521764        1.5302064576        1.8063018079
 C          0.0334362735        2.8046013646        1.7651387912
 C          1.3034851642        3.0205978470        1.2589650208
 C          2.0424298854        1.9402372040        0.7935759273
 N          3.3148587099        2.1320020435        0.2429769893
 S          4.5066796581        0.9715691607        0.3576198113
 O          4.5033599914        0.3251275554        1.6495294518
 O          5.7240361534        1.6732938990        0.0091101048
 C          4.1306669292       -0.2103642304       -0.9201397311
 C          4.4214712240       -1.5416359615       -0.6956369058
 C          4.1568284033       -2.4649235950       -1.6947344499
 C          3.6096877795       -2.0422325583       -2.8962017923
 C          3.3283656065       -0.7012012216       -3.1077220707
 C          3.5934278440        0.2274320310       -2.1140381364
 H          3.3768515332        1.2743966527       -2.2451018881
 H          2.8976155806       -0.3765817992       -4.0412174813
 H          3.3989160565       -2.7625050620       -3.6710306933
 H          4.3745527200       -3.5086859256       -1.5320181053
 H          4.8356260796       -1.8272578378        0.2585565793
 H          3.6772233237        3.0722009631        0.2884044988
 H          1.7162835031        4.0171648655        1.2199061767
 H         -0.5452825053        3.6395597664        2.1312322640
 H         -1.4898022042        1.3621959073        2.2015541329
 C         -0.3930266442       -0.9325074006        1.3790414563
 H         -0.5034508381       -1.2226681732        2.4344466076
 C          0.4208494022       -1.9918766836        0.6650131791
 C          1.5425233226       -2.6888086847        1.3726421594
 C          0.2692230077       -3.4229451945        1.0807845945
 H          0.2769711215       -4.1854546798        0.3167544406
 H         -0.4036872332       -3.6318364517        1.8999346825
 H          1.7458712635       -2.4022734239        2.3936490423
 H          2.4245169347       -2.9472609560        0.8066030078
 H          0.5330488924       -1.7871289304       -0.3938357466
 O         -1.0621887734       -0.0068103564       -1.2583372024
