  62
        -98.93139240
 C         -0.8207394391       -1.3926285383        0.5476566026
 C         -1.3369062439       -0.6386458048       -0.5367224862
 C         -2.4733108374        0.2496069072       -0.2210084968
 C         -2.8409631208        0.4313837356        1.0566343614
 C         -3.9477151255        1.3033840230        1.5943033021
 C         -5.3029854879        1.2354725723        0.8727153127
 C         -5.6370354176       -0.1195981387        0.2315824397
 H         -4.9430060130       -0.8840990245        0.5852961228
 H         -6.6383934246       -0.4214876124        0.5448928112
 C         -5.6181963030       -0.0797890630       -1.2989757119
 H         -6.2067059799       -0.9188527537       -1.6781505836
 H         -6.1093036605        0.8378372301       -1.6299944688
 C         -4.2352309795       -0.1677162345       -1.9443304251
 H         -4.3548345256       -0.0042710933       -3.0179511792
 H         -3.8311303118       -1.1758614195       -1.8176210199
 C         -3.1932962493        0.8262539475       -1.4051676484
 H         -2.4343216258        0.9746273382       -2.1771168308
 H         -3.6548730971        1.7821481814       -1.1746132225
 H         -5.3462896337        2.0074870972        0.1057521521
 H         -6.0667969113        1.4844843014        1.6112756662
 H         -3.6033899624        2.3411012014        1.6022824428
 H         -4.0716496661        0.9963019666        2.6354619379
 O         -2.1864661203       -0.1742077128        2.0899705167
 C         -1.2224846676       -1.1392442006        1.8597760857
 O         -0.7978480500       -1.6960831963        2.8939431334
 O         -0.9019335309       -0.6956132225       -1.7123980701
 C          0.1527306266       -2.5444883427        0.3692155495
 C          1.6012342338       -2.1327219287        0.3353620270
 C          2.5699735888       -2.9647481566        0.8887550139
 C          3.9129743911       -2.6493074634        0.7947941242
 C          4.3129835514       -1.4820790166        0.1696794609
 C          3.3527848133       -0.6264013356       -0.3515598041
 C          2.0069372481       -0.9543802281       -0.2748595885
 H          1.2734179457       -0.2966523248       -0.7140472001
 N          3.7125831008        0.6069761672       -0.9474050489
 S          3.3955546226        1.9316504809        0.0384681247
 O          4.1905680213        3.0098826190       -0.5105373513
 O          3.6533676223        1.6052798815        1.4247139970
 C          1.6763776803        2.3193945398       -0.1804169943
 C          0.8510192881        2.3221487418        0.9254907989
 C         -0.4595518153        2.7451453283        0.7818867031
 C         -0.9204898988        3.1475559657       -0.4613216381
 C         -0.0853707937        3.1157687330       -1.5673448372
 C          1.2300112095        2.7048269500       -1.4285747359
 H          1.9152263428        2.6835483606       -2.2597332802
 H         -0.4546822512        3.4170540879       -2.5343048794
 H         -1.9374613277        3.4887655234       -0.5682438304
 H         -1.1093223349        2.7578254713        1.6425941506
 H          1.2495519646        1.9979203511        1.8740706317
 H          4.6824410242        0.6435841857       -1.2340885837
 H          5.3592006253       -1.2236207053        0.0992404487
 H          4.6532451372       -3.3107027011        1.2187295730
 H          2.2620704870       -3.8632180535        1.4037221101
 H          0.0181657971       -3.1730804594        1.2648205107
 C         -0.2195455170       -3.3979438521       -0.8407378156
 C          0.5120536828       -3.3400281227       -2.1439963022
 C          0.6295360164       -4.5549290700       -1.2771779703
 H          0.1340076349       -5.4625596118       -1.5874941326
 H          1.5672265798       -4.7155276434       -0.7685231871
 H         -0.0705469390       -3.3939168793       -3.0506117203
 H          1.3596858823       -2.6766112066       -2.2145742900
 H         -1.2942029837       -3.5432154043       -0.9015941418
