  62
        -98.94491969
 C         -1.9577359725       -0.8540876751        0.0715174356
 C         -2.2599437041        0.1092603253        1.0611915184
 C         -2.3669803000        1.4975009149        0.5963891592
 C         -2.1414076881        1.7743238338       -0.7011363601
 C         -2.2499994270        3.1392258558       -1.3165724554
 C         -3.6654642304        3.4010217595       -1.8503864017
 C         -4.7725934242        3.0768534134       -0.8474073623
 H         -4.7777249325        2.0007694978       -0.6599276627
 H         -5.7241748337        3.3265329268       -1.3214010638
 C         -4.6554071788        3.8223555397        0.4892301136
 H         -5.6399447603        4.2064002041        0.7639350668
 H         -3.9913387121        4.6801329349        0.3779967141
 C         -4.1736995906        2.9585825726        1.6563118467
 H         -4.7785138695        2.0502460772        1.7141761623
 H         -4.3321591370        3.5177157660        2.5822222019
 C         -2.6956256455        2.5490626976        1.6188718956
 H         -2.4453747891        2.1088724017        2.5889145757
 H         -2.0691322327        3.4323377263        1.4754827748
 H         -3.8176305769        2.7858005064       -2.7400731498
 H         -3.7337506129        4.4496421735       -2.1453431608
 H         -1.5386122412        3.1966122623       -2.1423737584
 H         -1.9848824015        3.8874156014       -0.5717734875
 O         -1.8355417144        0.8246311166       -1.6212899156
 C         -1.7234873358       -0.5080362487       -1.2594796043
 O         -1.4320318849       -1.2742071784       -2.1983926129
 O         -2.4304638924       -0.1800018246        2.2781718144
 C         -1.7822794398       -2.3047865360        0.4814626164
 C         -0.3798857062       -2.7539400583        0.1497526324
 C         -0.0831366409       -3.9856455363       -0.4190731245
 C          1.2247705475       -4.3139104285       -0.7326350885
 C          2.2558683954       -3.4233559814       -0.4996690993
 C          1.9711425958       -2.1960409679        0.0895288318
 C          0.6661291647       -1.8828135727        0.4276630341
 H          0.4582345878       -0.9249293666        0.8836965301
 N          2.9945611873       -1.2711007749        0.3657398690
 S          2.6319768271        0.3740323327        0.2367320502
 O          2.0174322594        0.8110050779        1.4664865782
 O          1.8983272251        0.6405063725       -0.9802406225
 C          4.2811645020        1.0452960013        0.1273257303
 C          5.0176452320        1.1837915285        1.2888611939
 C          6.3127813498        1.6699100039        1.2067169498
 C          6.8474274477        2.0066221773       -0.0281842760
 C          6.0957613418        1.8640585294       -1.1847909015
 C          4.7999878413        1.3770635718       -1.1098042939
 H          4.1744393498        1.2552743258       -1.9798010301
 H          6.5122165393        2.1295025265       -2.1430948979
 H          7.8554412571        2.3851360689       -0.0895771976
 H          6.8990473267        1.7845721268        2.1040466882
 H          4.5552049184        0.9173772429        2.2248791270
 H          3.8582025406       -1.4939830354       -0.1111128134
 H          3.2711624942       -3.6712188799       -0.7694221080
 H          1.4410361296       -5.2709943863       -1.1826144337
 H         -0.8771953224       -4.6828435925       -0.6307372961
 H         -1.8999076353       -2.3173332524        1.5759940542
 C         -2.8583506158       -3.1724056697       -0.1372710078
 C         -3.3382812379       -4.4047390551        0.5681672096
 C         -4.2186705575       -3.1949673015        0.4908012462
 H         -5.0838576121       -3.2234109996       -0.1543564572
 H         -4.3592618058       -2.6041151657        1.3843020854
 H         -3.6034410818       -5.2672385886       -0.0244409454
 H         -2.8885295038       -4.6422274180        1.5203181192
 H         -2.8057979587       -3.1852804760       -1.2202843502
