  62
        -98.93340561
 C         -2.5467926175       -1.0626781252       -0.1419720968
 C         -2.6531614118        0.3454077109       -0.1880759612
 C         -3.9548632955        0.9263215840        0.2009378571
 C         -4.9462987289        0.0999865956        0.5831333585
 C         -6.3544004652        0.4550631311        0.9808430386
 C         -7.2390851353        0.8111948504       -0.2249893903
 C         -6.5820331688        1.7229778031       -1.2578643320
 H         -7.2645976557        1.8074864541       -2.1076187414
 H         -5.6679085092        1.2508732289       -1.6223085930
 C         -6.2651199958        3.1350751586       -0.7714016485
 H         -7.1889150014        3.6167405573       -0.4431934442
 H         -5.8850459074        3.6959458068       -1.6290791832
 C         -5.2361497203        3.2387130266        0.3563642824
 H         -5.6774097442        2.9810300563        1.3154058417
 H         -4.9345140680        4.2879507927        0.4264087962
 C         -3.9596881447        2.4344311118        0.1303664288
 H         -3.2063280420        2.7630740407        0.8568682109
 H         -3.5428034695        2.6914095205       -0.8500467772
 H         -8.1547560298        1.2756860220        0.1447050843
 H         -7.5121510894       -0.1191474297       -0.7289091680
 H         -6.7733140790       -0.4268778851        1.4704953356
 H         -6.3444064584        1.2624823988        1.7069983377
 O         -4.7923828471       -1.2555162643        0.6196925978
 C         -3.6063885754       -1.8686827379        0.2705177545
 O         -3.6155091761       -3.1131074854        0.3695850267
 H          1.1945582950       -0.5810779887       -1.1303160996
 C          1.0336203941       -0.6910686731       -0.0693371517
 C         -0.1426160815       -1.2545303979        0.3961494832
 C         -0.3173371502       -1.3882983453        1.7714742132
 C          0.6524394127       -0.9526761838        2.6530129227
 C          1.8172937073       -0.3694771525        2.1849074373
 C          2.0055387956       -0.2380121533        0.8165847977
 N          3.1736697325        0.3736032814        0.3277955730
 S          4.6444292607       -0.0254884234        1.0532276384
 O          4.7740173666       -1.4621893436        1.1591697156
 O          4.7647699044        0.7083298635        2.2879615596
 C          5.7914880603        0.6200024222       -0.1476627460
 C          6.3505693387       -0.2317068226       -1.0813118451
 C          7.2209227139        0.2887736848       -2.0262572265
 C          7.5126940135        1.6444893183       -2.0233518107
 C          6.9432557384        2.4867139497       -1.0796844790
 C          6.0732223513        1.9729003274       -0.1314637728
 H          5.6132850906        2.5869932236        0.6250306057
 H          7.1744185795        3.5397114115       -1.0795801817
 H          8.1903818702        2.0469483939       -2.7596535543
 H          7.6674195973       -0.3634766724       -2.7594509115
 H          6.1017536013       -1.2801032719       -1.0410145908
 H          3.2384319719        0.3189589141       -0.6795749085
 H          2.5807547759       -0.0220365884        2.8620410216
 H          0.5015401391       -1.0636981809        3.7167021721
 H         -1.2300741039       -1.8387419993        2.1390226539
 C         -1.2415898934       -1.7416657020       -0.5174460085
 H         -1.3920709197       -2.8135263136       -0.3228169032
 C         -0.9521584785       -1.5499613274       -1.9910601052
 C         -0.0906364824       -2.5346602876       -2.7217586256
 C         -1.5667812124       -2.4953166868       -2.9771735479
 H         -1.9180730999       -2.1016720718       -3.9191547886
 H         -2.1783993845       -3.2940930238       -2.5832616188
 H          0.3043721176       -3.3667108182       -2.1584636306
 H          0.5702831065       -2.1708044158       -3.4940593777
 H         -0.8918257973       -0.5049085553       -2.2720585822
 O         -1.7093444467        1.0980920185       -0.5460582725
