  62
        -98.94339096
 C          1.9698334190        0.9077409004       -0.4847126051
 C          0.8937652303        1.3320616898       -1.2982690421
 C          0.0913664993        2.4507809514       -0.7886267302
 C          0.4193132206        3.0075986498        0.3908479343
 C         -0.3638511433        4.0786556049        1.0950519459
 C         -1.5746571774        3.4453565310        1.8116037812
 C         -2.9340232111        3.8747834611        1.2571483972
 H         -3.6822400664        3.2040780079        1.6857882764
 H         -3.1567186356        4.8863435696        1.6047653479
 C         -3.0679746698        3.8611831833       -0.2688358389
 H         -2.6179950351        4.7645815613       -0.6838096868
 H         -4.1351218884        3.9109589498       -0.4952424489
 C         -2.4688788308        2.6392979011       -0.9771688951
 H         -2.3986680595        1.7984024054       -0.2848504428
 H         -3.1476335336        2.3395613334       -1.7786267581
 C         -1.0868736945        2.8886298798       -1.6135473460
 H         -1.0147854050        2.3144121900       -2.5420626951
 H         -0.9844852937        3.9459741391       -1.8721983052
 H         -1.5435713620        3.7001480930        2.8726198817
 H         -1.4810977095        2.3579327917        1.7507932252
 H          0.3023707894        4.5472527045        1.8200612018
 H         -0.6897377916        4.8316656262        0.3807817438
 O          1.4796120085        2.5954229073        1.1309419370
 C          2.2456531097        1.5058243239        0.7441548436
 O          3.1331328788        1.1912002569        1.5609271789
 H          0.3089803128       -1.1252610115       -0.2647773179
 C          1.0327298543       -1.6498661066        0.3375948474
 C          2.3860619184       -1.4118454530        0.1263145566
 C          3.3102633000       -2.1106535308        0.8889159677
 C          2.8775669671       -2.9877218334        1.8703368280
 C          1.5306212409       -3.1629983099        2.1268904934
 C          0.5959581345       -2.4795658250        1.3539100611
 N         -0.7779775842       -2.6252996392        1.5829873897
 S         -1.8845344540       -1.4149817826        1.2369863707
 O         -1.2946138247       -0.0977357334        1.2600873282
 O         -2.9588922815       -1.6440967622        2.1818397929
 C         -2.4678329643       -1.8525167116       -0.3877826215
 C         -2.1270148733       -1.1115775183       -1.5000399677
 C         -2.6006689457       -1.5094407117       -2.7412891102
 C         -3.4030952986       -2.6336309459       -2.8497857123
 C         -3.7400907666       -3.3673349146       -1.7215845272
 C         -3.2693942098       -2.9752190314       -0.4800578155
 H         -3.5168959161       -3.5074165159        0.4232920425
 H         -4.3659890486       -4.2409158978       -1.8072434614
 H         -3.7674461150       -2.9380331922       -3.8182865012
 H         -2.3282845663       -0.9355810825       -3.6127097987
 H         -1.4958696644       -0.2426643109       -1.4003454729
 H         -1.0221334733       -3.1336499063        2.4193381218
 H          1.2007767208       -3.8152808313        2.9211781693
 H          3.6035848351       -3.5227655974        2.4638596173
 H          4.3650531860       -1.9547137104        0.7332706608
 C          2.7383139518       -0.3437792603       -0.8814559398
 H          2.3346478982       -0.6400061379       -1.8605306262
 C          4.2207407735       -0.0817861093       -1.0180739475
 C          5.0606146335       -0.9745206324       -1.8808830411
 C          4.7522563764        0.4227801529       -2.3250698012
 H          5.5429177297        1.1577086767       -2.3094952182
 H          4.0443352299        0.5608738172       -3.1291513295
 H          6.0672856745       -1.1998132111       -1.5630334298
 H          4.5649916093       -1.7882607636       -2.3881138709
 H          4.6600439038        0.3189410754       -0.1120152499
 O          0.6032655101        0.7835785626       -2.3976224395
