  62
        -98.94160110
 C          2.1282890264        0.8089434133        0.2812432299
 C          2.9824856620        0.1951023610        1.2324153825
 C          3.7841776640       -0.9379774070        0.7522946573
 C          3.6173418867       -1.3699005196       -0.5107000093
 C          4.4055824997       -2.4752454737       -1.1501362638
 C          5.6572804175       -1.9294317204       -1.8519710732
 C          6.4894576857       -0.9838132956       -0.9856247694
 H          5.9109840099       -0.0779066444       -0.7901262542
 H          7.3606590655       -0.6869479593       -1.5734082299
 C          6.9531419172       -1.5865103459        0.3479332546
 H          8.0058066890       -1.3376062641        0.4973072386
 H          6.8799160135       -2.6739081151        0.3081072958
 C          6.1959563727       -1.0726381072        1.5738963999
 H          6.1888717716        0.0203437833        1.5685685511
 H          6.7391481210       -1.3914258802        2.4673846193
 C          4.7499831564       -1.5636077951        1.7189799991
 H          4.4006457829       -1.2802300851        2.7163073240
 H          4.7213300416       -2.6525122972        1.6418266836
 H          5.3428764294       -1.3871501319       -2.7467815641
 H          6.2723838102       -2.7747209883       -2.1657931705
 H          3.7701561090       -2.9677441871       -1.8883437335
 H          4.6893624616       -3.1996748095       -0.3889735343
 O          2.7287637447       -0.8106965991       -1.3699291708
 C          1.9672741879        0.2950938470       -1.0068162933
 O          1.2068603943        0.6974353036       -1.9058278905
 O          3.0660064495        0.5756262731        2.4311458644
 C          1.3141047994        2.0059611540        0.7395634185
 C         -0.1315929334        1.8362165651        0.3451462235
 C         -0.8229847085        2.7274410251       -0.4636775997
 C         -2.1470281824        2.4917126241       -0.7908512998
 C         -2.8098321405        1.3746580104       -0.3176963753
 C         -2.1257794654        0.4722065892        0.4865455216
 C         -0.8014397476        0.7132561309        0.8163190357
 H         -0.2659998439        0.0056798356        1.4387885625
 N         -2.7908275893       -0.6611924338        0.9858514076
 S         -3.7116243627       -1.5899373579       -0.0666981685
 O         -3.7634512741       -2.9008257411        0.5449484538
 O         -3.2087972008       -1.5321228491       -1.4194343527
 C         -5.3283244352       -0.8478683681        0.0222161894
 C         -5.9618416260       -0.4367339047       -1.1340618795
 C         -7.2219332440        0.1338673608       -1.0411996173
 C         -7.8230778938        0.2811983034        0.1993935342
 C         -7.1749818671       -0.1405881901        1.3508735419
 C         -5.9159089815       -0.7127955745        1.2649018288
 H         -5.3802229373       -1.0566346138        2.1338544830
 H         -7.6457220317       -0.0248673403        2.3138358277
 H         -8.8026659554        0.7271076934        0.2689935411
 H         -7.7273314493        0.4611643410       -1.9355772393
 H         -5.4524825198       -0.5660945280       -2.0759896894
 H         -2.2085243714       -1.2514395922        1.5623087550
 H         -3.8386151652        1.1862065369       -0.5770916712
 H         -2.6706375802        3.1883771279       -1.4276708277
 H         -0.3187253054        3.5927229966       -0.8607918217
 H          1.3680380923        1.9621709103        1.8407314389
 C          1.8993514941        3.3506943751        0.3351016943
 C          3.3710324806        3.5125839910        0.1024262216
 C          2.4149225902        3.6216185434       -1.0453458169
 H          2.2412416372        4.5978776747       -1.4740441214
 H          2.3718974280        2.8167073883       -1.7621007432
 H          3.8524711183        4.4096614230        0.4617455281
 H          3.9886670185        2.6286074536        0.1707648899
 H          1.4016933794        4.1740958073        0.8380568990
