  62
        -98.93637362
 C         -2.6405424044       -1.2124260150        0.2720407048
 C         -2.7730814608       -0.2994277765       -0.8005807870
 C         -3.7765706453        0.7679941338       -0.6323306011
 C         -4.5120071771        0.8231318740        0.4902480076
 C         -5.6061010539        1.7956147080        0.8529039953
 C         -5.3686369678        3.2798756874        0.5409428728
 C         -3.9070116653        3.7401394900        0.6411338039
 H         -3.8591911752        4.6334729301        1.2665760881
 H         -3.3037980239        2.9706208469        1.1261072162
 C         -3.2951621527        4.0868962666       -0.7184556486
 H         -2.4299417943        4.7348846234       -0.5591308571
 H         -4.0266347761        4.6551857149       -1.2971640826
 C         -2.8199489975        2.8944067243       -1.5476489919
 H         -2.5142874591        3.2666828786       -2.5286407391
 H         -1.9346308832        2.4508337376       -1.0834200790
 C         -3.8536043639        1.7733354236       -1.7455775904
 H         -4.8571547897        2.1769756341       -1.8541439409
 H         -3.5946221646        1.2338650889       -2.6606521785
 H         -5.9783603804        3.8502751618        1.2436428765
 H         -5.7443508252        3.5078840165       -0.4556293310
 H         -6.5271362347        1.4697274616        0.3609044056
 H         -5.7533631325        1.6667136637        1.9278365102
 O         -4.3643588061       -0.0861007991        1.4941632073
 C         -3.4364895997       -1.1062986125        1.4172120754
 O         -3.4173382482       -1.8526644237        2.4162390654
 H         -0.0720754318       -0.7008015565       -1.1658987005
 C          0.4212125064       -1.0395765677       -0.2668128771
 C         -0.2520755327       -1.8931764467        0.5953393553
 C          0.3930928480       -2.3114057612        1.7534296634
 C          1.6769851616       -1.8809949457        2.0387414964
 C          2.3408745117       -1.0221368978        1.1810627041
 C          1.7051811735       -0.5979990959        0.0214832127
 N          2.3528148248        0.2981716641       -0.8443187380
 S          3.9437055981        0.0039030109       -1.2825328107
 O          4.1239705351        0.6908332737       -2.5426621462
 O          4.2462012298       -1.4086959286       -1.2720455545
 C          4.8920469894        0.8403993284       -0.0285347890
 C          5.8670779345        0.1562790367        0.6704538080
 C          6.6007422891        0.8321695444        1.6331800354
 C          6.3486620549        2.1734213222        1.8772368902
 C          5.3676186123        2.8469085774        1.1645824847
 C          4.6313674340        2.1772184141        0.2005122468
 H          3.8629182179        2.6645568898       -0.3762964842
 H          5.1743334662        3.8899798001        1.3571102195
 H          6.9198940011        2.6974898978        2.6271636811
 H          7.3640624122        0.3105220123        2.1878815512
 H          6.0248392350       -0.8875517978        0.4501001366
 H          1.7952629384        0.5580306104       -1.6452287198
 H          3.3399669808       -0.6821817546        1.3997600204
 H          2.1656293878       -2.2148211877        2.9414119762
 H         -0.1242215552       -2.9698700698        2.4362035477
 C         -1.6505056467       -2.3677060057        0.2763669902
 H         -1.9732550817       -3.0255950004        1.0942558875
 C         -1.6701921825       -3.1677279565       -1.0123864724
 C         -1.1715507185       -4.5799457365       -0.9974086590
 C         -2.6362209421       -4.3032005056       -1.1549211523
 H         -3.0949997784       -4.4713916802       -2.1177157156
 H         -3.2876894323       -4.5125243488       -0.3186823646
 H         -0.8302652160       -4.9799641915       -0.0545462074
 H         -0.6197230581       -4.9401794203       -1.8522099131
 H         -1.4715212145       -2.5728575892       -1.8940065420
 O         -2.1036150554       -0.3493559461       -1.8680331542
