  62
        -98.93789041
 C          2.6172132311        0.1567705431       -0.0605690412
 C          2.3948816962        1.2405519174       -0.9383960352
 C          1.8024537912        2.4558350371       -0.3556419336
 C          1.4788923813        2.4688424977        0.9511554519
 C          0.8612459296        3.5486776818        1.8148479719
 C          0.2310779886        4.7883539381        1.1859153586
 C         -1.0544892340        4.5228853844        0.4031263468
 H         -1.8380533301        4.2433094832        1.1120593785
 H         -1.3568616371        5.4543105710       -0.0812424627
 C         -0.9769147568        3.4183983596       -0.6485926930
 H         -1.9592231447        3.3486517892       -1.1260221031
 H         -0.7885137611        2.4572565889       -0.1629216841
 C          0.0526145099        3.6411483610       -1.7550670498
 H         -0.1254739893        4.6072526188       -2.2321191580
 H         -0.1000967782        2.8626712395       -2.5079818995
 C          1.5253416867        3.5762116718       -1.3173021786
 H          2.1313339754        3.3729798481       -2.2053841020
 H          1.8578522388        4.5256225243       -0.9049571063
 H         -0.0200838561        5.4607646745        2.0108615218
 H          0.9570190415        5.3072585375        0.5668252850
 H          0.1107398713        3.0359986992        2.4257713333
 H          1.6524282325        3.8698341607        2.5016419927
 O          1.7359963322        1.4048757436        1.7667569581
 C          2.2603980374        0.2199129203        1.2859616876
 O          2.3748460042       -0.6778948232        2.1430598540
 O          2.6678532864        1.1923870675       -2.1701497957
 C          3.0903783571       -1.1712381554       -0.6295109503
 C          1.9616375571       -2.1570303949       -0.4466146965
 C          2.0921876378       -3.4030323290        0.1506025521
 C          0.9750761268       -4.1860980934        0.3938265134
 C         -0.2921121618       -3.7420109621        0.0611088324
 C         -0.4254167261       -2.5126402440       -0.5667211508
 C          0.6924865998       -1.7452574093       -0.8350170136
 H          0.5715780704       -0.7772891272       -1.3069056743
 N         -1.7283642858       -2.0006934061       -0.8447890754
 S         -2.2403985140       -1.0869425841        0.4935027895
 O         -1.4614280889        0.1285205774        0.6005957809
 O         -2.2452955275       -1.9564600244        1.6421122824
 C         -3.9157257495       -0.6984366806        0.0212545781
 C         -4.2311209344        0.5776641204       -0.4020655776
 C         -5.5312852865        0.8500586334       -0.7988962025
 C         -6.4858385254       -0.1550669669       -0.7704100989
 C         -6.1528230432       -1.4324908712       -0.3441519756
 C         -4.8557093674       -1.7104712304        0.0556394070
 H         -4.5507224033       -2.6840568950        0.4010447921
 H         -6.8983332156       -2.2108396514       -0.3226150055
 H         -7.4962198091        0.0591796623       -1.0810334430
 H         -5.7922858535        1.8427735320       -1.1288083274
 H         -3.4554626748        1.3272233361       -0.4028429011
 H         -1.6942831508       -1.3593864937       -1.6293997226
 H         -1.1727750176       -4.3168174582        0.2953804775
 H          1.0930620985       -5.1450753116        0.8751425134
 H          3.0667378470       -3.7508735170        0.4526931643
 H          3.2375376170       -0.9972719545       -1.7056726092
 C          4.3998314578       -1.6136138284       -0.0171535613
 C          5.3107151972       -2.5306220504       -0.7764168777
 C          5.6821364708       -1.0912235969       -0.5899829488
 H          6.4862241875       -0.8471008877        0.0876000476
 H          5.6114531162       -0.4287650737       -1.4402681457
 H          5.8645357886       -3.2768703289       -0.2273668255
 H          4.9936501384       -2.8486534471       -1.7579910024
 H          4.3388862286       -1.7229454552        1.0596183887
