  62
        -98.93841275
 C         -2.2971633774       -0.7523377457        0.2022102712
 C         -1.6107891480       -0.1180813791       -0.8613808626
 C         -1.9078935348        1.3084753403       -1.0562890781
 C         -2.7610068518        1.9264949393       -0.2208924466
 C         -3.1621273671        3.3704184170       -0.3107473923
 C         -2.2618309022        4.2723255285        0.5428667031
 C         -0.7662570415        4.0480451340        0.3191900809
 H         -0.2329241582        4.7795682400        0.9314885731
 H         -0.4854440463        3.0607705700        0.6938301138
 C         -0.3131579809        4.1770553885       -1.1417324747
 H         -1.0603728809        4.7246623923       -1.7182662257
 H          0.6103221667        4.7595486300       -1.1674472407
 C         -0.0149145051        2.8392743101       -1.8213631512
 H          0.6178204450        2.2416016066       -1.1604415409
 H          0.5512678064        3.0373351300       -2.7355911979
 C         -1.2396141204        2.0008321205       -2.2108100868
 H         -1.9552021788        2.6238303036       -2.7524382419
 H         -0.9004077112        1.2049179032       -2.8801636123
 H         -2.5122859967        5.3125281014        0.3235485454
 H         -2.4806259813        4.0852464278        1.5969543828
 H         -3.1217554825        3.6841576824       -1.3523205844
 H         -4.1901537606        3.4598284492        0.0461511275
 O         -3.3570641984        1.2974754934        0.8260762583
 C         -3.1284605166       -0.0455081568        1.0688585703
 O         -3.7200545161       -0.4957101694        2.0746444469
 H         -0.4318015617       -1.0968655519        2.0507055402
 C          0.1006261894       -1.7683487353        1.3864824759
 C         -0.6253567266       -2.5243409592        0.4669300732
 C          0.0904736295       -3.3717782228       -0.3685720005
 C          1.4741632001       -3.4282195294       -0.3079372557
 C          2.1855618957       -2.6222875224        0.5600722916
 C          1.4815762541       -1.7840360347        1.4130746279
 N          2.2074637774       -0.8655665199        2.2305949948
 S          2.2124747057        0.6565876965        1.4886970682
 O          2.9570446144        1.5234322581        2.3786025936
 O          0.8689893912        1.0985385562        1.1819870702
 C          3.1415589273        0.3524977529        0.0059442767
 C          2.4894577838       -0.0521571136       -1.1422964015
 C          3.2455385839       -0.3222018311       -2.2730884855
 C          4.6247405727       -0.1884942082       -2.2361162701
 C          5.2625207371        0.2159531233       -1.0725933227
 C          4.5155103886        0.4871749323        0.0618533266
 H          4.9620132811        0.8076110802        0.9888437473
 H          6.3353908390        0.3187031683       -1.0458547751
 H          5.2053735203       -0.4015072409       -3.1199014556
 H          2.7449171197       -0.6402104893       -3.1733835605
 H          1.4147300528       -0.1572874571       -1.1471456173
 H          1.7945362073       -0.7533960322        3.1479680327
 H          3.2630358723       -2.6233310852        0.5812709789
 H          2.0043128501       -4.0901272156       -0.9751343701
 H         -0.4081854288       -3.9755881979       -1.1043295683
 C         -2.1079537277       -2.2427028589        0.4813868119
 H         -2.4457725368       -2.3839857613        1.5222860049
 C         -3.0946081085       -3.0186001379       -0.3777371589
 C         -2.8824724828       -3.3945708282       -1.8106355733
 C         -2.9750945261       -4.4629689946       -0.7601263229
 H         -3.8749183114       -5.0597695548       -0.7300560741
 H         -2.0900717432       -5.0049797214       -0.4711162299
 H         -3.7157302502       -3.2734953890       -2.4879538732
 H         -1.9320409586       -3.1553308440       -2.2585790944
 H         -4.0996005177       -2.6836622369       -0.1271794425
 O         -0.8050201210       -0.7088620663       -1.6244303873
