  62
        -98.93721810
 C         -2.4293369213       -1.0696932808       -0.0734916299
 C         -3.5369913244       -0.7801737509        0.7569785434
 C         -4.5654232435        0.1274386694        0.2132425972
 C         -4.3937755946        0.6297024216       -1.0238765355
 C         -5.2755931451        1.5968081852       -1.7682534384
 C         -5.1307523966        3.0412511097       -1.2629270085
 C         -5.1098655078        3.1916669857        0.2558564567
 H         -4.2878091096        2.6001861268        0.6631192686
 H         -4.8976478435        4.2398689016        0.4824144630
 C         -6.4083596928        2.8146492924        0.9651246580
 H         -7.2212543191        3.4324541183        0.5770178432
 H         -6.2822300436        3.0589134380        2.0230180611
 C         -6.8237054190        1.3452391322        0.8648480000
 H         -7.2673570442        1.1269996991       -0.1028211510
 H         -7.6072159842        1.1773219365        1.6096047676
 C         -5.7116471092        0.3470615460        1.1712099203
 H         -5.2555687937        0.6027392901        2.1344323702
 H         -6.1620188904       -0.6417010492        1.3209765106
 H         -5.9462691801        3.6351002660       -1.6791198501
 H         -4.1901003084        3.4409883390       -1.6494633521
 H         -6.3105020893        1.2714413304       -1.7201325888
 H         -4.9642945247        1.5621397965       -2.8146342482
 O         -3.3035802852        0.3291584728       -1.7858196518
 C         -2.2997846650       -0.5132066785       -1.3450823741
 O         -1.3782644133       -0.6838727496       -2.1662290192
 O         -3.6675159896       -1.2578118972        1.9165157569
 C         -1.3474707059       -1.9931334309        0.4602257387
 C         -0.0854591777       -1.1918975622        0.6620113715
 C         -0.0023714682       -0.3336650564        1.7556809119
 C          1.1224636715        0.4415061401        1.9619610405
 C          2.1866850540        0.3841240127        1.0782977117
 C          2.1129957209       -0.4654802150       -0.0163797552
 C          0.9857476679       -1.2533736930       -0.2145943845
 H          0.9393103625       -1.9014451209       -1.0756551134
 N          3.1808403786       -0.5118913782       -0.9280910989
 S          4.7331565056       -0.7384454070       -0.3364509367
 O          5.4753856480       -1.3270209383       -1.4299194453
 O          4.7229218740       -1.4786394029        0.9042349123
 C          5.3325274459        0.9144118051       -0.0548412916
 C          5.8094396549        1.2720333708        1.1909929668
 C          6.2811289107        2.5613660193        1.3833508017
 C          6.2686230143        3.4647591842        0.3317584089
 C          5.7884288328        3.0891157649       -0.9141555829
 C          5.3165061626        1.8015951902       -1.1132132262
 H          4.9377437407        1.4699177384       -2.0657008090
 H          5.7797115690        3.7945444313       -1.7294652997
 H          6.6352311880        4.4676965211        0.4836553872
 H          6.6550246370        2.8554186379        2.3509411749
 H          5.7950778234        0.5374210695        1.9803744004
 H          3.0050004869       -1.0985483035       -1.7305964239
 H          3.0660977483        0.9886811959        1.2291792715
 H          1.1724676729        1.0995277394        2.8161944330
 H         -0.8381625881       -0.2821650098        2.4398596023
 H         -1.7045165072       -2.3170577589        1.4475936755
 C         -1.1685126332       -3.2141798306       -0.4167310274
 C         -0.4136185361       -4.3956411306        0.1131154886
 C         -1.8983147796       -4.4764251141       -0.0731997452
 H         -2.2849647656       -5.0829200336       -0.8784681595
 H         -2.5253576432       -4.4672861383        0.8061697455
 H          0.2211670224       -4.9494382645       -0.5620816119
 H         -0.0293793031       -4.3295706931        1.1199439011
 H         -1.0647058441       -2.9746307688       -1.4684361812
