  62
        -98.94545634
 C         -1.7703242887       -1.4336952924        0.2250412507
 C         -1.5546122833       -0.1059200026       -0.2185294037
 C         -2.5731853188        0.8704502150        0.1899523454
 C         -3.6102204169        0.4807116348        0.9528357387
 C         -4.7158501070        1.3647830947        1.4630863782
 C         -5.8523910235        1.5879257241        0.4558980310
 C         -5.5114711866        2.5077585899       -0.7172741943
 H         -6.4515081140        2.7508212270       -1.2167897513
 H         -5.0951374223        3.4408397673       -0.3365153643
 C         -4.5509705002        1.8936687106       -1.7452608141
 H         -4.5210077691        0.8096359406       -1.6129393172
 H         -4.9284510106        2.0818800006       -2.7530099733
 C         -3.1241501501        2.4392268854       -1.6855201022
 H         -3.1276448068        3.4997597762       -1.9466913160
 H         -2.5250975272        1.9098425957       -2.4306264015
 C         -2.4404391529        2.2726815830       -0.3220741440
 H         -1.3740826697        2.4735548640       -0.4451715732
 H         -2.8548509603        2.9805972607        0.3951024425
 H         -6.1780912272        0.6169478913        0.0754423256
 H         -6.6900902595        2.0274119070        1.0023931138
 H         -5.1294302778        0.8683567505        2.3435826766
 H         -4.3048807072        2.3273963030        1.7682757464
 O         -3.7659759824       -0.8017781344        1.3785742075
 C         -2.8605878575       -1.7868055317        1.0209739565
 O         -3.1276111245       -2.9193127818        1.4721311446
 H          1.5258610393       -1.7825560602       -1.4575411331
 C          1.6298959584       -1.7693697768       -0.3845107382
 C          0.5675981745       -2.1464902626        0.4196005971
 C          0.7302649813       -2.1051823787        1.8019782332
 C          1.9263655262       -1.6989679019        2.3614507756
 C          2.9827364098       -1.3117021008        1.5546588092
 C          2.8264338106       -1.3404324415        0.1760877637
 N          3.8866283648       -0.9318862863       -0.6547890303
 S          4.6143329742        0.5405749692       -0.3300992901
 O          5.2902405181        0.9019040258       -1.5560732726
 O          5.4515568069        0.4093395996        0.8365202630
 C          3.2832279560        1.6796214244        0.0002011476
 C          2.5513584512        2.1560668190       -1.0686470802
 C          1.5003755198        3.0244379439       -0.8281621904
 C          1.1947219409        3.3917915820        0.4729951939
 C          1.9349775378        2.8996836160        1.5362312132
 C          2.9913496475        2.0349224328        1.3010092114
 H          3.5970509736        1.6393664665        2.0996889775
 H          1.6913715507        3.1858573846        2.5469572567
 H          0.3745406213        4.0674961500        0.6602351618
 H          0.9203738935        3.4045958301       -1.6538567225
 H          2.8211512358        1.8546196406       -2.0679718930
 H          3.6673518566       -0.9974843583       -1.6385745668
 H          3.9211397719       -0.9849766913        1.9721599493
 H          2.0384307221       -1.6780952678        3.4349646950
 H         -0.1024188913       -2.3893917721        2.4313888622
 C         -0.7814376689       -2.5296794975       -0.1361481207
 H         -1.1246276062       -3.4351623787        0.3825378032
 C         -0.7889023655       -2.7887060274       -1.6277763644
 C         -0.2408693952       -4.0768732313       -2.1623065455
 C         -1.7179441527       -3.8242264903       -2.1826944137
 H         -2.1959854848       -3.6324753177       -3.1317601319
 H         -2.3409540020       -4.3611787084       -1.4822337103
 H          0.2943656362       -4.0632259706       -3.0997567028
 H          0.1418418512       -4.7900443313       -1.4480101169
 H         -0.6447993222       -1.8892451668       -2.2148121245
 O         -0.5723095400        0.2511096163       -0.9180436029
