  62
        -98.93514377
 C         -1.7102090987        0.8580698211        0.8983890664
 C         -2.0406997830       -0.1651570549       -0.0185563999
 C         -3.4795585638       -0.3986149847       -0.2531498075
 C         -4.3804155586        0.3403159277        0.4191165247
 C         -5.8860489155        0.2905719950        0.3487434573
 C         -6.5308634323       -1.1039329172        0.3337420012
 C         -7.1493207027       -1.4737349246       -1.0155987084
 H         -7.9259615335       -2.2238808828       -0.8503960592
 H         -7.6358572359       -0.5879292648       -1.4293489987
 C         -6.1718470089       -2.0397744346       -2.0441686315
 H         -5.8765257589       -3.0477672767       -1.7450298509
 H         -6.7051586428       -2.1261574185       -2.9938237319
 C         -4.9043422363       -1.2122053428       -2.2671395324
 H         -5.1402858703       -0.1487513058       -2.2826935207
 H         -4.5104691626       -1.4646765713       -3.2539519509
 C         -3.7985465120       -1.4902215782       -1.2379116078
 H         -4.0242919094       -2.4078276898       -0.6871446403
 H         -2.8523931282       -1.6755957791       -1.7559971741
 H         -5.8004391051       -1.8533454545        0.6342329960
 H         -7.3260765798       -1.1103572521        1.0809914227
 H         -6.2280711026        0.8479495471        1.2238126947
 H         -6.2108092835        0.8583961568       -0.5268314736
 O         -4.0114561369        1.3190623010        1.2962006140
 C         -2.6845529943        1.6096313654        1.5515144091
 O         -2.5045277290        2.5416446102        2.3618611100
 H          2.1908995795        0.2871196954        0.2721870067
 C          1.7112040859        0.9771637030       -0.4006744381
 C          0.4741598338        1.5144262415       -0.0834014335
 C         -0.1075283976        2.4177443585       -0.9696910638
 C          0.5250296505        2.7561895061       -2.1495053874
 C          1.7577328985        2.2120781362       -2.4658985648
 C          2.3527168606        1.3190676047       -1.5840259850
 N          3.5869983888        0.7308367382       -1.8883479040
 S          4.6979816637        0.3861135104       -0.6912809880
 O          4.7025158024        1.3949234735        0.3425238019
 O          5.9471077447        0.2051757506       -1.4006582078
 C          4.1853512937       -1.1805803081       -0.0180549789
 C          3.6314934243       -2.1294999692       -0.8539481408
 C          3.2663606131       -3.3561977427       -0.3229275317
 C          3.4670937175       -3.6158656571        1.0241824678
 C          4.0318703158       -2.6553850406        1.8488200878
 C          4.3956700168       -1.4248513456        1.3247842628
 H          4.8271835873       -0.6445284471        1.9317078380
 H          4.1874665788       -2.8592521574        2.8964980163
 H          3.1800307810       -4.5713632749        1.4342041566
 H          2.8226941372       -4.1038649965       -0.9605392408
 H          3.4817921966       -1.8949570962       -1.8944884392
 H          4.0246414842        1.0523491217       -2.7387506831
 H          2.2524332984        2.4736216875       -3.3889578085
 H          0.0576691049        3.4532258924       -2.8289882901
 H         -1.0695368562        2.8460672108       -0.7215649288
 C         -0.2540749781        1.1677129269        1.1923200023
 H         -0.2555924394        2.0607113197        1.8350995143
 C          0.3744583492        0.0196059165        1.9548926931
 C          1.5079827907        0.2696916461        2.9020584406
 C          0.1498973793       -0.0754927634        3.4329492726
 H         -0.0001937716       -1.0509497239        3.8702124317
 H         -0.4355309447        0.7058573552        3.8958580885
 H          2.2892899849       -0.4716825836        2.9735958288
 H          1.8567402724        1.2860320882        3.0089760382
 H          0.3762088503       -0.9042395277        1.3874693641
 O         -1.1770177196       -0.8543792686       -0.6211619126
