  62
        -98.94047400
 C         -1.1577680414       -1.2422064397       -0.0244206608
 C         -1.6254743206       -0.1968984694        0.8056126394
 C         -2.7631270901        0.5763497515        0.2930740295
 C         -3.2471121404        0.3099943219       -0.9332600604
 C         -4.3579865199        1.0408633228       -1.6406023703
 C         -5.7584501799        0.9358854337       -1.0062415901
 C         -6.1101398990        2.0866837539       -0.0553275600
 H         -7.1539473188        2.3657485046       -0.2129376899
 H         -5.5095893684        2.9574182435       -0.3219668500
 C         -5.9469413091        1.7912619337        1.4386170099
 H         -6.7944492195        1.1913869142        1.7779237500
 H         -5.9825049184        2.7430498636        1.9730145500
 C         -4.6718684496        1.0475435627        1.8361194898
 H         -4.7616877504       -0.0064677272        1.5628289697
 H         -4.5845149794        1.0790641326        2.9239116997
 C         -3.3796989992        1.5990800718        1.2023360397
 H         -2.6421380090        1.8107082112        1.9794254396
 H         -3.5764688486        2.5235092420        0.6607297198
 H         -5.8559879206       -0.0230565063       -0.4980796802
 H         -6.4770667700        0.9415267943       -1.8273027701
 H         -4.3892384503        0.6161327729       -2.6462269203
 H         -4.0781280192        2.0931269626       -1.7335896602
 O         -2.7296181112       -0.6677975184       -1.7268135706
 C         -1.6817075817       -1.4684850192       -1.2965583707
 O         -1.3155282624       -2.3232088394       -2.1257055808
 O         -1.1086281303        0.0826542402        1.9216828693
 C          0.0055639780       -2.0920030305        0.4492343291
 C          1.2129037381       -1.8799391313       -0.4314441511
 C          2.0835432473       -2.8984350219       -0.7986792712
 C          3.1929625375       -2.6215154627       -1.5791009213
 C          3.4767055683       -1.3291760728       -1.9823057212
 C          2.6148021891       -0.3024824222       -1.6143488411
 C          1.4915557490       -0.5883707515       -0.8562445210
 H          0.8136725996        0.2131137090       -0.6066870008
 N          2.8620825000        1.0290934076       -1.9824325410
 S          2.5052831110        2.2459293578       -0.8892991809
 O          1.0860519812        2.4976944088       -0.8601238107
 O          3.3307071818        3.3571441972       -1.3145812508
 C          3.0899406707        1.6276767372        0.6792756390
 C          2.2105689305        1.2191909278        1.6605655291
 C          2.7214924703        0.6880934773        2.8352997590
 C          4.0913738802        0.5755157663        3.0095598589
 C          4.9626869904        1.0005657358        2.0176576788
 C          4.4592058007        1.5281616363        0.8408106789
 H          5.1029204208        1.8796294459        0.0508551789
 H          6.0284564704        0.9182262150        2.1569728187
 H          4.4808183200        0.1569184760        3.9241556388
 H          2.0355099001        0.3607976378        3.6004977690
 H          1.1461322706        1.3081056186        1.5074996092
 H          3.7446823001        1.1861877770       -2.4463354211
 H          4.3479869184       -1.1151569734       -2.5818494613
 H          3.8544404069       -3.4238126331       -1.8683205014
 H          1.8893660966       -3.9096777918       -0.4811669313
 H          0.2569892884       -1.7059197008        1.4494967491
 C         -0.4037747230       -3.5442021702        0.5784780790
 C          0.2256982565       -4.4170653908        1.6218216488
 C         -1.1941157132       -3.9659127798        1.7800100990
 H         -1.9860871237       -4.6879286692        1.6491335390
 H         -1.4128474726       -3.2088877497        2.5191446191
 H          0.4073398657       -5.4543917509        1.3843517287
 H          0.9714252369       -3.9719608114        2.2628604788
 H         -0.6667517034       -3.9879874200       -0.3749513010
