  62
        -98.93033357
 C          2.4200624839        0.9965961087        0.3468776117
 C          2.9197989896       -0.0353209987        1.1784650766
 C          3.7100111355       -1.0956591954        0.5292212427
 C          3.8721090677       -1.0697669625       -0.8066982542
 C          4.6539494812       -1.9756890717       -1.7349559948
 C          5.1662615914       -3.3312335051       -1.2553100216
 C          4.0744675688       -4.3602609300       -0.9640391409
 H          3.6135103096       -4.6542284871       -1.9103678600
 H          4.5462147338       -5.2466077712       -0.5343871286
 C          2.9578134263       -3.8914742193       -0.0345463188
 H          2.4168915361       -3.0644842730       -0.4995401733
 H          2.2490321166       -4.7163238564        0.0783770882
 C          3.4053061063       -3.4693871959        1.3635591377
 H          2.5054197718       -3.3144474435        1.9649804725
 H          3.9799748287       -4.2749864342        1.8245518223
 C          4.2343734656       -2.1751367894        1.4322144050
 H          5.2853082894       -2.3672507182        1.2293007733
 H          4.1634990859       -1.7838063365        2.4513386158
 H          5.7891529918       -3.7304403823       -2.0603922846
 H          5.8125465895       -3.2054584823       -0.3916102393
 H          4.0168069193       -2.1229244356       -2.6128383594
 H          5.5104857868       -1.3823184438       -2.0738342114
 O          3.3221657145       -0.0854660373       -1.5752814880
 C          2.5838803201        0.9598178402       -1.0376527912
 O          2.1453912688        1.7529781936       -1.8896577205
 O          2.7174222313       -0.0702931072        2.4223410308
 C          1.6198024161        2.1064207546        1.0040527832
 C          0.3201923539        2.3192484540        0.2687882990
 C         -0.0209171442        3.5064159256       -0.3637084907
 C         -1.2334210553        3.6246943734       -1.0210152872
 C         -2.1265334724        2.5708233709       -1.0633988406
 C         -1.7969613767        1.3781817652       -0.4315551436
 C         -0.5862100417        1.2658350981        0.2348211461
 H         -0.3264881777        0.3362513369        0.7277345148
 N         -2.6884793650        0.2875899280       -0.4852141845
 S         -4.3135504921        0.6147041153       -0.1527010523
 O         -4.9180731675        1.1831017890       -1.3308505436
 O         -4.4233527852        1.4024922196        1.0553548529
 C         -4.9462416464       -1.0289704080        0.1157726938
 C         -5.2982272797       -1.7926558062       -0.9808875138
 C         -5.7679354367       -3.0802793677       -0.7766697904
 C         -5.8766177681       -3.5799187077        0.5127294401
 C         -5.5208385019       -2.8008283352        1.6034428531
 C         -5.0489116439       -1.5125562104        1.4062780311
 H         -4.7696163794       -0.8685717360        2.2249205984
 H         -5.6094003529       -3.1907553543        2.6047056916
 H         -6.2440314792       -4.5818183107        0.6691872106
 H         -6.0480833489       -3.6883447876       -1.6216231846
 H         -5.2056850235       -1.3591200894       -1.9629281782
 H         -2.3647497125       -0.4878042341        0.0775990975
 H         -3.0732954871        2.6549650174       -1.5719528198
 H         -1.4849459751        4.5518426864       -1.5140669946
 H          0.6704241047        4.3328477398       -0.3616862244
 H          1.3768243552        1.7088331712        2.0041209791
 C          2.4007134599        3.3911754509        1.2346163139
 C          3.8821216758        3.3609566966        1.4601779747
 C          3.3270659899        3.9712201575        0.2099531555
 H          3.3644230551        5.0459129964        0.1058338127
 H          3.4408549267        3.4393303300       -0.7212786677
 H          4.3005877592        4.0133621285        2.2117524501
 H          4.3796050576        2.4048931698        1.3847799541
 H          1.8387355147        4.0990735429        1.8366342054
