  62
        -98.93798372
 C         -2.6892192508       -1.2414214193        0.2555406906
 C         -2.9567210005       -0.2529672994        1.2376580808
 C         -4.0523374002        0.6790402310        0.9476624310
 C         -4.7440719702        0.5387487116       -0.1976103291
 C         -5.8389038298        1.4566449920       -0.6565480789
 C         -5.2785459394        2.5956738821       -1.5202215586
 C         -4.0747978392        3.3071080915       -0.9019486984
 H         -3.2349194794        2.6101224612       -0.8513571585
 H         -3.7855473989        4.1085762116       -1.5851522081
 C         -4.3311137590        3.8931626412        0.4935794618
 H         -3.9157626587        4.9024143211        0.5310202821
 H         -5.4042656490        3.9780144016        0.6684529518
 C         -3.6921473094        3.1063776107        1.6395286916
 H         -3.7489646792        3.7170308605        2.5446328018
 H         -2.6338818894        2.9382163904        1.4237342316
 C         -4.3381244599        1.7524539909        1.9595744913
 H         -3.9134593000        1.3958849805        2.9026109212
 H         -5.4142316398        1.8797768312        2.0936505412
 H         -6.0774247892        3.3174802824       -1.6996858684
 H         -4.9724173295        2.1807522822       -2.4833151187
 H         -6.3532279297        1.8635350620        0.2119018012
 H         -6.5483860900        0.8776517924       -1.2500397491
 O         -4.4826423905       -0.4379334383       -1.1003616393
 C         -3.4382903708       -1.3384491387       -0.9179460295
 O         -3.3092008911       -2.1465696785       -1.8546755697
 O         -2.3047281605       -0.1592969799        2.3129445609
 C         -1.5228726212       -2.1719103198        0.5393403404
 C         -0.2570531409       -1.5713915301       -0.0178319694
 C         -0.1492649408       -1.2437385198       -1.3666179993
 C          1.0096874995       -0.6697717700       -1.8549184491
 C          2.0750539595       -0.3967957306       -1.0134361490
 C          1.9763205494       -0.7140029609        0.3342787309
 C          0.8150687891       -1.3055761406        0.8198345007
 H          0.7357352090       -1.5397005109        1.8727872606
 N          3.0276037794       -0.4059357615        1.2055564310
 S          4.6233838494       -0.5484530920        0.7283265411
 O          4.8050529391       -1.6364183418       -0.2039505492
 O          5.3716346293       -0.6304589825        1.9630509111
 C          4.9742898600        1.0062739681       -0.0654277885
 C          4.6307221704        2.1694036681        0.5951974817
 C          4.9081630808        3.3868972281       -0.0054099280
 C          5.5244363209        3.4211777682       -1.2474747179
 C          5.8669953005        2.2447385483       -1.8959688682
 C          5.5908561600        1.0234188582       -1.3010951485
 H          5.8331436197        0.0840880383       -1.7724054687
 H          6.3461196705        2.2733969683       -2.8614230182
 H          5.7384164612        4.3705201983       -1.7125444077
 H          4.6419518311        4.3036844681        0.4956735223
 H          4.1534039303        2.1030778480        1.5587434117
 H          2.8833846493       -0.6872774517        2.1633346309
 H          2.9770612297        0.0536501892       -1.3934946989
 H          1.0836762096       -0.4239566098       -2.9035403391
 H         -0.9843510108       -1.4428849693       -2.0215867194
 H         -1.4305764012       -2.1727720401        1.6371957704
 C         -1.7626851316       -3.6106617096        0.1070420200
 C         -0.9855426018       -4.3017072296       -0.9690251801
 C         -0.7610254320       -4.6692822800        0.4650087498
 H         -1.1171438024       -5.6237085700        0.8219625495
 H          0.1619894581       -4.3432566404        0.9218222399
 H         -1.5210868221       -4.9888849292       -1.6060411803
 H         -0.2098733416       -3.7526439097       -1.4788569600
 H         -2.8084036017       -3.8880351992        0.1894840899
