  62
        -98.94065116
 C         -1.5946136228       -0.5659782810        0.7823430319
 C         -2.9535212477       -0.6818515249        1.1761161881
 C         -3.9420226050       -0.7382216336        0.0942136815
 C         -3.5335089210       -0.6685257423       -1.1852447442
 C         -4.4158202158       -0.7337722267       -2.4022614757
 C         -5.0426327906        0.6121720695       -2.7907741251
 C         -6.1587326632        1.1006569841       -1.8665093042
 H         -6.8999054782        0.3101110995       -1.7447130556
 H         -6.6511033518        1.9338309222       -2.3719709422
 C         -5.6773104537        1.5749952527       -0.4881253773
 H         -6.1561153434        2.5257178663       -0.2426650883
 H         -4.6008546586        1.7599272261       -0.5222914915
 C         -5.9786634511        0.6072726703        0.6564505149
 H         -7.0595782134        0.5187802924        0.7859150387
 H         -5.5625010249        1.0251770731        1.5766455132
 C         -5.3925328383       -0.7980309833        0.4673467037
 H         -5.9576875799       -1.3427048208       -0.2886709748
 H         -5.4708973340       -1.3322832889        1.4173671793
 H         -5.4550871644        0.5013630137       -3.7963696918
 H         -4.2518461841        1.3648456381       -2.8378801932
 H         -5.2032993930       -1.4714847880       -2.2452294922
 H         -3.7833902535       -1.0689584999       -3.2272364587
 O         -2.2245789427       -0.5448815759       -1.5252017813
 C         -1.2246048612       -0.4633894644       -0.5600745502
 O         -0.0853182919       -0.3187841265       -1.0374775567
 O         -3.3237013800       -0.7363201126        2.3789127467
 C         -0.5586762186       -0.4652474955        1.8885852981
 C          0.2723063540        0.7789163258        1.7061544829
 C         -0.3005852715        2.0085307421        2.0211005297
 C          0.4176326324        3.1803743381        1.8871949182
 C          1.7216876892        3.1464331320        1.4261883308
 C          2.2986094610        1.9281411583        1.0916479890
 C          1.5775774768        0.7500994501        1.2380174010
 H          2.0336627123       -0.1882401365        0.9684456759
 N          3.6299753267        1.8685642375        0.6296087749
 S          3.8861393899        1.3223572531       -0.9443520147
 O          5.1794117740        1.8750544204       -1.2989184539
 O          2.7919503135        1.6867837164       -1.8129227850
 C          4.0543524221       -0.4418613369       -0.8036466379
 C          5.2057707282       -0.9293520253       -0.2154496152
 C          5.3846020800       -2.2999699924       -0.1291459969
 C          4.4181431428       -3.1538421008       -0.6401522132
 C          3.2690433024       -2.6463962045       -1.2265342715
 C          3.0768444546       -1.2750149451       -1.3079245053
 H          2.1814046907       -0.8435298305       -1.7272916061
 H          2.5148887832       -3.3102169301       -1.6190071337
 H          4.5591355293       -4.2218373246       -0.5809850814
 H          6.2750408838       -2.6986210752        0.3296291187
 H          5.9382055057       -0.2284915684        0.1490517365
 H          4.1271021263        2.7418804892        0.7458707875
 H          2.2898296642        4.0587379273        1.3175956432
 H         -0.0384440180        4.1257599497        2.1402709896
 H         -1.3221005584        2.0318204249        2.3761389361
 H         -1.1617810047       -0.3274226127        2.8016303949
 C          0.2735134520       -1.7169703757        2.1168639483
 C         -0.3680090729       -3.0704467060        2.0472768598
 C          0.6560678536       -2.6720894634        1.0294129611
 H          1.6338153727       -3.1283431279        1.0796082788
 H          0.3294017556       -2.4529883623        0.0259950809
 H         -0.1013947648       -3.8083229853        2.7886087669
 H         -1.4031680041       -3.1114652447        1.7401849617
 H          1.0026470362       -1.5694751791        2.9079234487
