  62
        -98.94598108
 C          1.6164278641        1.2985154129        0.3717440428
 C          1.5415624531        0.2492279496       -0.5757735308
 C          2.4121072290       -0.9094006704       -0.3192626341
 C          3.1756977653       -0.9337961281        0.7879178974
 C          4.1360041552       -2.0297884615        1.1461372861
 C          5.5406446253       -1.7363281638        0.6006160703
 C          5.5595309807       -1.3377321710       -0.8751701634
 H          5.0539817486       -0.3763518184       -0.9919474370
 H          6.6036946667       -1.1868661989       -1.1576267433
 C          4.9187874062       -2.3648024338       -1.8192700349
 H          5.5665311356       -2.4918957725       -2.6892698532
 H          4.8514090947       -3.3334899229       -1.3227527264
 C          3.5385081373       -1.9687412358       -2.3471424296
 H          3.2802337379       -2.6472566963       -3.1646687075
 H          3.5817024278       -0.9587058374       -2.7626154798
 C          2.3929735271       -2.0243805904       -1.3282045850
 H          1.4542752130       -1.9183435523       -1.8803453520
 H          2.3925197214       -2.9985286076       -0.8343886290
 H          5.9742608900       -0.9186318860        1.1809133841
 H          6.1603772815       -2.6226908297        0.7477297080
 H          4.1867303740       -2.1004378421        2.2338745146
 H          3.7708255999       -2.9738770380        0.7465841206
 O          3.1915936107        0.0749094630        1.6949097376
 C          2.4277478866        1.2125945792        1.5078329355
 O          2.5519706213        2.0663667125        2.4071498474
 H         -1.1320451587        1.7476515607       -1.5394793221
 C         -1.4910737441        1.7554492651       -0.5230735871
 C         -0.6595734063        2.1828837643        0.4999427327
 C         -1.1410359063        2.1548535831        1.8056458014
 C         -2.4228191183        1.7121738266        2.0769696510
 C         -3.2400038292        1.2568554429        1.0564397938
 C         -2.7594518534        1.2653928503       -0.2459351860
 N         -3.5475727723        0.7241448037       -1.2789320390
 S         -4.2068109731       -0.7855039602       -0.9726667600
 O         -4.2443651893       -1.4609047041       -2.2515765359
 O         -5.4851440252       -0.6204001899       -0.3237669782
 C         -3.0869343648       -1.6151822769        0.1483220933
 C         -3.6052069403       -2.1934577317        1.2899340811
 C         -2.7491515224       -2.8353342302        2.1698365779
 C         -1.3906290777       -2.8804644144        1.8988470354
 C         -0.8854021751       -2.2959620176        0.7481757414
 C         -1.7374575627       -1.6616494748       -0.1417111423
 H         -1.3480925683       -1.1959751417       -1.0337009813
 H          0.1729185152       -2.3153572326        0.5396633806
 H         -0.7189109959       -3.3696838090        2.5865520643
 H         -3.1413003714       -3.2908493979        3.0647919975
 H         -4.6658747002       -2.1211768361        1.4683331710
 H         -3.0798786750        0.7273475842       -2.1746527912
 H         -4.2332070124        0.8839248225        1.2493770237
 H         -2.7852174640        1.7057896057        3.0934951714
 H         -0.4891249067        2.4690299067        2.6086056621
 C          0.7773475589        2.5620561604        0.2397679273
 H          1.1074623778        3.2276649351        1.0475462627
 C          0.9963529753        3.2611191507       -1.0857167420
 C          0.5148634043        4.6698111345       -1.2548794615
 C          1.9833562195        4.3850317683       -1.1655566952
 H          2.5833909773        4.4813185830       -2.0581707704
 H          2.5035914839        4.6599239567       -0.2595032104
 H          0.1047993103        4.9651358722       -2.2085684651
 H          0.0366625156        5.1370969925       -0.4073018821
 H          0.9363994886        2.6007049357       -1.9413127984
 O          0.7975762552        0.2605341968       -1.5920994756
