  62
        -98.94649356
 C          1.5536863289        1.0937087722        0.0215008301
 C          2.6093153603        0.8133891275        0.9264954362
 C          3.3203264626       -0.4516808020        0.7147925453
 C          2.9223914574       -1.2839951244       -0.2642426988
 C          3.5148031262       -2.6314094726       -0.5764580367
 C          4.7621675946       -2.5745226248       -1.4691283508
 C          6.0269561436       -2.0501715602       -0.7882581142
 H          6.1961652706       -2.6018744706        0.1369722496
 H          6.8636378338       -2.2689738068       -1.4547920152
 C          6.0101554792       -0.5431600585       -0.4962707677
 H          6.9615448121       -0.1023253097       -0.8025007213
 H          5.2301025093       -0.0649194663       -1.0931508411
 C          5.7975784708       -0.1844595730        0.9745580553
 H          6.6442210501       -0.5420041170        1.5648175874
 H          5.7644838899        0.9047357955        1.0599962134
 C          4.5062737749       -0.7482295347        1.5818281099
 H          4.6038361553       -1.8218788661        1.7407982777
 H          4.3413851452       -0.2642798563        2.5475098022
 H          4.5386568142       -1.9600500995       -2.3443623906
 H          4.9588860108       -3.5906295488       -1.8188755510
 H          3.7545421223       -3.1501738767        0.3520443798
 H          2.7441322487       -3.1984170953       -1.1031318308
 O          1.8868670612       -0.9922885436       -1.0938905058
 C          1.1936395099        0.2069186564       -0.9929942624
 O          0.3018336937        0.3430497122       -1.8522107955
 H         -1.5068750146        2.0276510643       -1.2687705853
 C         -1.6560449416        1.8092831777       -0.2236487915
 C         -0.6157638404        1.9832264985        0.6755058751
 C         -0.8334033630        1.6714214953        2.0149873515
 C         -2.0605766750        1.1985527856        2.4408994073
 C         -3.0887952979        0.9989558368        1.5355932611
 C         -2.8748263234        1.2945000093        0.1962111700
 N         -3.8907348093        1.0308648914       -0.7414120540
 S         -4.6156328799       -0.4752581108       -0.6367101577
 O         -5.0017422878       -0.8137029079       -1.9892409052
 O         -5.6960087773       -0.4160775452        0.3181897258
 C         -3.3631936405       -1.6014571064       -0.0387746443
 C         -2.1421743776       -1.6546648307       -0.6809257213
 C         -1.1757972220       -2.5275907085       -0.2077801983
 C         -1.4428038110       -3.3321618368        0.8886485602
 C         -2.6768652017       -3.2724576714        1.5175002707
 C         -3.6459623567       -2.3983868520        1.0526223202
 H         -4.6146602065       -2.3122568583        1.5176964917
 H         -2.8838519451       -3.8993932754        2.3698106733
 H         -0.6834973952       -4.0060418711        1.2533916725
 H         -0.2148230625       -2.5575237085       -0.6972789931
 H         -1.9316332670       -1.0152866199       -1.5238378829
 H         -3.6109213787        1.2214757773       -1.6931747660
 H         -4.0467148305        0.6113133989        1.8430517341
 H         -2.2164202521        0.9692106324        3.4838618494
 H         -0.0195925542        1.7901258173        2.7163796857
 C          0.7664737699        2.3793439971        0.2215035151
 H          1.2663616955        2.9024027928        1.0472780241
 C          0.7857677229        3.2689736334       -1.0030579004
 C          0.3374304367        4.6936494061       -0.8782714867
 C          1.7877947508        4.3796282034       -1.0856193829
 H          2.2323534317        4.6017240624       -2.0442812569
 H          2.4629869644        4.5073160111       -0.2522618800
 H         -0.2156133264        5.1352023235       -1.6932149469
 H          0.0260551341        5.0324898845        0.0982400109
 H          0.5574121304        2.7446439140       -1.9229549448
 O          2.9371128744        1.5827777313        1.8676260031
