  62
        -98.94335036
 C          2.5542874256        0.0440905859       -0.1412786336
 C          2.4031093623        1.1820213033       -0.9722775698
 C          1.8850278229        2.3965505845       -0.3317587647
 C          1.5880865633        2.3700607062        0.9796855474
 C          1.0200793336        3.5224426975        1.7560131017
 C         -0.5128458048        3.4744382959        1.7891390802
 C         -1.1631269722        3.3023160482        0.4159257112
 H         -0.9531859146        2.2956017451        0.0452007661
 H         -2.2447842497        3.3588444346        0.5628055287
 C         -0.7367785807        4.3358635988       -0.6355369952
 H         -1.6261765186        4.6642312072       -1.1772496219
 H         -0.3109561360        5.2122583149       -0.1448684110
 C          0.2475963742        3.8063681925       -1.6804465102
 H          0.2759885918        4.5147555623       -2.5130800192
 H         -0.1201935943        2.8528965516       -2.0707761789
 C          1.6908206377        3.6084467759       -1.1984835934
 H          2.3185544021        3.4494099447       -2.0803321884
 H          2.0364054834        4.5098123007       -0.6875064146
 H         -0.8754456652        4.3935212305        2.2544019053
 H         -0.8184405630        2.6279049275        2.4086396650
 H          1.3566051513        4.4556931252        1.3079874221
 H          1.3963820705        3.4629395187        2.7790548314
 O          1.7532848144        1.2663638632        1.7497132807
 C          2.1748076092        0.0629395592        1.2031246442
 O          2.1893677430       -0.8795503050        2.0170436378
 O          2.6857693138        1.1788720656       -2.2024329193
 C          2.9427945185       -1.2657587097       -0.8095442192
 C          1.8752768202       -2.2828701531       -0.4908667834
 C          2.1089684114       -3.5374326530        0.0535972425
 C          1.0450214411       -4.3644686650        0.3747046109
 C         -0.2614902449       -3.9525183013        0.1874752026
 C         -0.5035819497       -2.7008951473       -0.3684817059
 C          0.5621048223       -1.8987961023       -0.7321626341
 H          0.3651841554       -0.9285023638       -1.1658175380
 N         -1.8118697999       -2.2213172448       -0.5743809431
 S         -2.0466349973       -0.5680025116       -0.2831362011
 O         -1.6925813490        0.1644339132       -1.4741265297
 O         -1.3859389659       -0.1771532962        0.9402125934
 C         -3.8167263506       -0.5266243036       -0.0707588340
 C         -4.6211937966       -0.5186700354       -1.1945140994
 C         -5.9975236498       -0.5221247915       -1.0326337088
 C         -6.5432948956       -0.5336598499        0.2425298486
 C         -5.7232352420       -0.5384449731        1.3608589778
 C         -4.3457481277       -0.5368708670        1.2057644817
 H         -3.6672322898       -0.5321721815        2.0440775605
 H         -6.1495399962       -0.5432797866        2.3510628883
 H         -7.6147108698       -0.5358020061        0.3658687889
 H         -6.6380745828       -0.5150445963       -1.8996346689
 H         -4.1499918009       -0.4998568185       -2.1633283965
 H         -2.5065044671       -2.7760390130       -0.0917538876
 H         -1.0867736968       -4.5863765326        0.4748027477
 H          1.2374659409       -5.3358756893        0.8046802764
 H          3.1185170979       -3.8560890332        0.2556301835
 H          2.8806961058       -1.0412050365       -1.8887372704
 C          4.3613424141       -1.7469671783       -0.5546658313
 C          5.4428596032       -0.7843256529       -0.1667588421
 C          4.9667065418       -1.8111409472        0.8142898411
 H          5.6215640210       -2.6396789819        1.0421835936
 H          4.3578499131       -1.4905248772        1.6440435025
 H          6.4207750679       -0.9035388219       -0.6085943888
 H          5.1565362623        0.2451606221       -0.0052165709
 H          4.6482329374       -2.5330264616       -1.2469786795
