  62
        -98.93978330
 C          2.2258468889        0.7835085497        0.1172695097
 C          2.4232685909       -0.3718127929        0.9105777853
 C          3.1221071701       -1.4882059873        0.2610796046
 C          3.4839789448       -1.3736873341       -1.0300851469
 C          4.2500427896       -2.4092894508       -1.8000112194
 C          5.7628932755       -2.1684094734       -1.6985922207
 C          6.2601646905       -1.9524130598       -0.2692171605
 H          7.3435210277       -1.8231653948       -0.3180767627
 H          5.8427673885       -1.0194230099        0.1164377162
 C          5.9249102453       -3.0953580357        0.6991545205
 H          5.6729076818       -3.9953360022        0.1371196887
 H          6.8124625059       -3.3222493439        1.2935110833
 C          4.7979994047       -2.7814288210        1.6849338007
 H          5.0031711042       -1.8315682438        2.1852076777
 H          4.7907638427       -3.5601512794        2.4522554366
 C          3.3870882037       -2.7159949055        1.0866047963
 H          3.1908778648       -3.6203956480        0.5071685848
 H          2.6757907516       -2.6781020982        1.9169832664
 H          6.2785633009       -3.0232186847       -2.1399080271
 H          6.0120174799       -1.2811650855       -2.2852064182
 H          4.0026737072       -3.3974310809       -1.4170377533
 H          3.9510344927       -2.3494077014       -2.8477534253
 O          3.2290483364       -0.2688935683       -1.7758183497
 C          2.6008973987        0.8392602564       -1.2256090362
 O          2.4386101229        1.7825272795       -2.0211977412
 O          2.0280864685       -0.4667885505        2.1050697827
 C          1.5314806905        1.9838676645        0.7366011925
 C          0.1970393421        2.1979834762        0.0643288025
 C         -0.1753978198        3.3827838341       -0.5541851792
 C         -1.4180654504        3.4961604294       -1.1549299568
 C         -2.3119927037        2.4419697020       -1.1496900323
 C         -1.9542870379        1.2546857851       -0.5220953049
 C         -0.7105553028        1.1447569587        0.0801254448
 H         -0.4287505936        0.2208804949        0.5710094481
 N         -2.8496466090        0.1624123370       -0.5165286993
 S         -4.4089844734        0.4681548659        0.0639245607
 O         -5.1202397218        1.2450628557       -0.9186032284
 O         -4.3434162542        1.0370325194        1.3929806127
 C         -5.0771562379       -1.1818751992        0.1264601724
 C         -5.5540598304       -1.7457223513       -1.0414921595
 C         -6.0580498978       -3.0359544937       -1.0044425406
 C         -6.0756109991       -3.7368861551        0.1924117749
 C         -5.5935985879       -3.1573431770        1.3563305915
 C         -5.0871691640       -1.8673704348        1.3260790890
 H         -4.7112948197       -1.3744770580        2.2085680710
 H         -5.6107779599       -3.7035350614        2.2857448468
 H         -6.4702553927       -4.7403212364        0.2193027754
 H         -6.4358680381       -3.4896413691       -1.9064426347
 H         -5.5284974192       -1.1599212306       -1.9453673112
 H         -2.4587131944       -0.6234651801       -0.0124714667
 H         -3.2830698562        2.5261474704       -1.6091659770
 H         -1.6939592067        4.4214882872       -1.6380520090
 H          0.5069260457        4.2163066222       -0.5733370877
 H          1.3371344694        1.6993903819        1.7815863522
 C          2.4311832185        3.2003509011        0.7241737605
 C          2.2126288885        4.3010667883        1.7174421459
 C          3.4003938161        3.3972554602        1.8496994398
 H          4.3790865197        3.7932632335        1.6239312397
 H          3.3990825784        2.6627620265        2.6420176762
 H          2.3769934760        5.3204229519        1.4027414593
 H          1.4035383746        4.1831197400        2.4224863641
 H          2.7629982831        3.4671064099       -0.2725468622
