  62
        -98.94125981
 C          1.8729485105       -0.6055139666       -0.0187360018
 C          2.5920701261       -0.0935042324       -1.1285758385
 C          3.6841775132        0.8394561274       -0.8223795999
 C          3.8945811901        1.2053113283        0.4549108277
 C          5.0043568834        2.1027876629        0.9182774798
 C          6.2536679979        1.2921406961        1.2910299623
 C          6.6701532894        0.2742497966        0.2291278682
 H          7.5785099758       -0.2152338237        0.5868691714
 H          5.8997676611       -0.4965607214        0.1526424313
 C          6.9260058818        0.8743997846       -1.1604897468
 H          7.0742471733        1.9516843779       -1.0770017627
 H          7.8494895082        0.4503411909       -1.5602963475
 C          5.8262392208        0.5926266160       -2.1859534333
 H          5.6109971515       -0.4788253098       -2.2070244316
 H          6.2036716808        0.8692233459       -3.1739824956
 C          4.5071546951        1.3459937040       -1.9732456844
 H          4.7069551504        2.4140182575       -1.8639710335
 H          3.8932958503        1.2009183068       -2.8672029650
 H          7.0747927160        1.9880031561        1.4724565313
 H          6.0524518625        0.7544537652        2.2205384803
 H          5.2421750224        2.8152601709        0.1305612858
 H          4.6601362100        2.6493018927        1.7980351898
 O          3.1334583556        0.7584512801        1.4845630480
 C          2.1089665086       -0.1604586500        1.2833618365
 O          1.5056487371       -0.4747558501        2.3247415220
 H         -0.5284031613        0.6878467524       -0.6126527677
 C         -1.0363108856        0.0593334383        0.1090736597
 C         -0.5015793956       -1.1879336139        0.4113909812
 C         -1.1618248581       -1.9841252763        1.3367323274
 C         -2.3120306313       -1.5285707751        1.9583379421
 C         -2.8306088098       -0.2807522793        1.6687712357
 C         -2.1831450065        0.5203546926        0.7358132770
 N         -2.7051207221        1.7873907881        0.4273506261
 S         -4.3574373365        1.9373572000        0.2193147009
 O         -4.5241777440        3.0685118013       -0.6665669774
 O         -5.0036917540        2.0454360302        1.5035462085
 C         -4.8688323369        0.4302105889       -0.5878325376
 C         -5.7810799573       -0.4045557538        0.0245122130
 C         -6.1410264634       -1.5837176896       -0.6083330546
 C         -5.5820008674       -1.9075020589       -1.8345582591
 C         -4.6693763420       -1.0563366161       -2.4391599591
 C         -4.3077083220        0.1246864715       -1.8120891878
 H         -3.6049981236        0.8097644797       -2.2590737470
 H         -4.2356491645       -1.3092530307       -3.3933836809
 H         -5.8586391913       -2.8277707808       -2.3242625834
 H         -6.8520702947       -2.2461702144       -0.1417019820
 H         -6.1884595315       -0.1152694318        0.9795285967
 H         -2.1935425886        2.2844398003       -0.2860354796
 H         -3.7122449888        0.0948507235        2.1622296326
 H         -2.8078757272       -2.1523165752        2.6862305279
 H         -0.7612662538       -2.9503779123        1.5942517883
 C          0.7610514311       -1.5997167526       -0.3026737018
 H          0.5813890550       -1.4981562579       -1.3864017176
 C          1.1461294101       -3.0525090529       -0.0674021922
 C          2.5713987037       -3.5004072347       -0.1871179357
 C          1.8957983113       -3.5012375289        1.1497164674
 H          1.6352324324       -4.4531138186        1.5891203018
 H          2.1748272310       -2.7500888785        1.8715907143
 H          2.7749066561       -4.4471117735       -0.6646841093
 H          3.3188892860       -2.7446561816       -0.3812642532
 H          0.3970118081       -3.7358863735       -0.4550988454
 O          2.3269495435       -0.3990838174       -2.3224125215
