  62
        -98.94070541
 C          2.0656978288        0.9564545744        0.2950986625
 C          1.9462236686       -0.0310595452       -0.7144153319
 C          2.1653764948       -1.4179546062       -0.2795008472
 C          2.4285406133       -1.6907490068        1.0097712942
 C          2.6394216920       -3.0566636844        1.6053928917
 C          4.0657382000       -3.5999134842        1.4409688329
 C          4.4376946855       -4.0403461831        0.0245028458
 H          5.3731482247       -4.5983231531        0.0984948712
 H          3.6776608045       -4.7253400997       -0.3523431243
 C          4.6296325302       -2.8857449636       -0.9687069766
 H          5.5429807388       -3.0485902068       -1.5450778676
 H          4.7585013445       -1.9503479334       -0.4195264957
 C          3.4867794322       -2.7147516393       -1.9697739025
 H          3.7059788703       -1.8479087764       -2.5981246279
 H          3.4285986525       -3.5937490849       -2.6155452087
 C          2.1135864938       -2.4929944511       -1.3227671404
 H          1.4097700310       -2.1689111189       -2.0942886221
 H          1.7442415771       -3.4228194916       -0.8895350671
 H          4.1622859781       -4.4629832540        2.1036376274
 H          4.7695792121       -2.8375370372        1.7822570578
 H          2.4252131599       -2.9640880118        2.6724033664
 H          1.9260242083       -3.7570437683        1.1694335644
 O          2.5204353156       -0.7174608248        1.9549330037
 C          2.3371438240        0.6127624716        1.6220824243
 O          2.4521155919        1.3976431715        2.5871087531
 H         -0.3589063902        1.0098911304       -0.7537608014
 C         -0.6265901807        1.9093565215       -0.2212465707
 C          0.3557025273        2.7659572335        0.2511805727
 C         -0.0340551751        3.9245061777        0.9140685788
 C         -1.3735915753        4.2062612484        1.1123564558
 C         -2.3488790629        3.3260227826        0.6794133846
 C         -1.9690843858        2.1681102841        0.0108832376
 N         -2.9222704913        1.2411376201       -0.4406804787
 S         -2.5309178102       -0.3996806963       -0.2937034466
 O         -1.7786834058       -0.6219506815        0.9210940526
 O         -1.9281186320       -0.8489727746       -1.5224620862
 C         -4.1637191910       -1.1054362581       -0.1447249413
 C         -4.6875617236       -1.3318332881        1.1141061086
 C         -5.9699747723       -1.8462936410        1.2243497713
 C         -6.7043935856       -2.1204022879        0.0802637897
 C         -6.1652665801       -1.8883152044       -1.1764470734
 C         -4.8830359826       -1.3754950912       -1.2937114651
 H         -4.4174543181       -1.1873850993       -2.2471122904
 H         -6.7376645596       -2.1054511678       -2.0637399481
 H         -7.7020602337       -2.5202350069        0.1690197250
 H         -6.3897044537       -2.0310509256        2.2000059639
 H         -4.0752249517       -1.1114323353        1.9740099211
 H         -3.8542483471        1.4347647157       -0.0992917525
 H         -3.3936173975        3.5295949184        0.8588224399
 H         -1.6612825738        5.1086870367        1.6299221603
 H          0.7222066698        4.5956088623        1.2928814474
 C          1.8197248313        2.4379988291        0.0626136324
 H          2.3782461556        2.9637974923        0.8506109342
 C          2.3009955344        2.9456091902       -1.2827422878
 C          2.7106823124        4.3795542096       -1.4241621070
 C          3.7460479588        3.2966988722       -1.4624189453
 H          4.2181651088        3.0590905922       -2.4035720858
 H          4.3959891888        3.1817422787       -0.6068438000
 H          2.6686506129        5.0047927853       -0.5454711236
 H          2.4694237288        4.8928704913       -2.3420864584
 H          1.7952442910        2.4790737835       -2.1179451340
 O          1.6710926255        0.2031921190       -1.9213754729
