  62
        -98.94193847
 C         -1.2131443895       -0.9284708849        0.3984943718
 C         -2.0131361425       -0.6980578101       -0.7438969872
 C         -2.9567934456        0.4315108849       -0.6620630112
 C         -2.9698234827        1.1967972030        0.4429086005
 C         -3.8769851033        2.3582317132        0.7416873607
 C         -5.1155358389        1.8937243944        1.5268215198
 C         -6.2840840785        1.4196133985        0.6636442270
 H         -7.0355424745        1.0005078197        1.3366307692
 H         -6.7338863767        2.2811964137        0.1658751737
 C         -5.9329315473        0.3713577591       -0.3954362312
 H         -5.2597454337       -0.3734245118        0.0327047754
 H         -6.8537386837       -0.1453062262       -0.6726529437
 C         -5.3045588365        0.9767381481       -1.6595786949
 H         -5.8377453113        0.6105191796       -2.5393290860
 H         -5.4421580935        2.0578436638       -1.6431319411
 C         -3.8189579682        0.6501733902       -1.8753315812
 H         -3.3635673479        1.4374971203       -2.4861584260
 H         -3.7286019107       -0.2780339102       -2.4486590870
 H         -4.8032215613        1.0900366751        2.1985742323
 H         -5.4666623318        2.7204538528        2.1476577723
 H         -3.3032363942        3.0467596448        1.3661046754
 H         -4.1584400370        2.8716254485       -0.1730244606
 O         -2.1496921759        0.9662044232        1.5047857018
 C         -1.2491269679       -0.0820357596        1.5053042124
 O         -0.5425859457       -0.1562038386        2.5324675650
 O         -1.9502887748       -1.4028179961       -1.7859283599
 C         -0.2030825370       -2.0600912599        0.4068839553
 C          0.8513603962       -1.8358202353       -0.6518478366
 C          1.4459870263       -2.8680674311       -1.3671761034
 C          2.4322418567       -2.5937587172       -2.2991241870
 C          2.8624524041       -1.2981829715       -2.5226103099
 C          2.2760871113       -0.2592409879       -1.8088138194
 C          1.2792002022       -0.5372618104       -0.8884027095
 H          0.8123086625        0.2809715388       -0.3628790294
 N          2.6731440908        1.0724249960       -1.9999983752
 S          2.6824676833        2.1361075067       -0.7106911113
 O          1.3373036797        2.5112585762       -0.3515799605
 O          3.5395670340        3.2156780380       -1.1534641106
 C          3.4831367202        1.2426166725        0.6095587943
 C          4.8416942613        1.0201126590        0.4822209374
 C          5.4992798474        0.2890820568        1.4568299953
 C          4.7891171503       -0.2130589596        2.5374263648
 C          3.4287830193        0.0227783794        2.6536184435
 C          2.7651151131        0.7582977724        1.6831615173
 H          1.7056736717        0.9485078349        1.7596703412
 H          2.8659837107       -0.3619051297        3.4894050230
 H          5.2975305623       -0.7882664127        3.2950064072
 H          6.5589309884        0.1104985569        1.3713341428
 H          5.3589901841        1.4376447903       -0.3663112392
 H          3.4721780248        1.2004072091       -2.6028669700
 H          3.6340125494       -1.0885910942       -3.2471893539
 H          2.8793513483       -3.4034289827       -2.8554032111
 H          1.1319526905       -3.8853848053       -1.2004334384
 H          0.2982408345       -2.0087506492        1.3857681590
 C         -0.8991795824       -3.4004407262        0.2865869136
 C         -0.3350052641       -4.6117320520        0.9647442058
 C         -1.5813344037       -3.9698283185        1.4932228190
 H         -2.5241118278       -4.4790240185        1.3610606232
 H         -1.5171381266       -3.4033067537        2.4112773689
 H         -0.4246893248       -5.5673989171        0.4705279177
 H          0.5745372098       -4.4901665387        1.5333647049
 H         -1.3885957486       -3.5285276995       -0.6717306167
