  62
        -98.93284831
 C         -1.9717426033       -1.0333961226        0.4028584523
 C         -2.6926242550       -0.0577769796        1.1375077153
 C         -4.1162645173        0.0916463540        0.8129343304
 C         -4.6627495543       -0.6873898179       -0.1374497672
 C         -6.1072627111       -0.7147748276       -0.5623309750
 C         -6.6485530398        0.5670068469       -1.2240333062
 C         -7.3345932310        1.5376236875       -0.2547389328
 H         -8.2209093361        1.9510372409       -0.7403784006
 H         -7.6859138993        0.9780517161        0.6131100584
 C         -6.4869625350        2.7250215616        0.2119301328
 H         -6.9911589615        3.1800825463        1.0673165960
 H         -6.4513984481        3.4727524440       -0.5837588189
 C         -5.0440024940        2.4034192746        0.6018805946
 H         -4.4469852393        2.2402195085       -0.2987389804
 H         -4.6207692393        3.2807104876        1.0954763737
 C         -4.8835504000        1.1732172846        1.5158945305
 H         -4.3035248073        1.4410613454        2.4014004111
 H         -5.8559611667        0.8052439856        1.8401947673
 H         -5.8427059460        1.0685045511       -1.7594102592
 H         -7.3832336869        0.2525936710       -1.9670733553
 H         -6.7226851664       -0.9611102398        0.3060231978
 H         -6.1852397559       -1.5414690697       -1.2714097659
 O         -3.9382551497       -1.6114759329       -0.8218635361
 C         -2.5802081730       -1.8008268299       -0.5913632205
 O         -2.0676606826       -2.6664253600       -1.3227476209
 O         -2.1672039212        0.6470371429        2.0416076501
 C         -0.5020618756       -1.1895485359        0.7495730017
 C          0.3492825960       -0.2974260028       -0.1162148267
 C          0.2680106886       -0.3492375391       -1.5044510357
 C          1.0677211986        0.4656297524       -2.2851539205
 C          1.9634584837        1.3448462510       -1.7010777736
 C          2.0506934211        1.4048441494       -0.3171601202
 C          1.2472034862        0.5853881664        0.4653643320
 H          1.3097586974        0.6468182727        1.5434649406
 N          2.9819091838        2.2814635976        0.2782566103
 S          4.5919121051        1.9808077195       -0.0884669569
 O          5.3554506161        2.6645177014        0.9298586654
 O          4.8478599749        2.3709109889       -1.4508494158
 C          4.7460086629        0.2133482092        0.0892491300
 C          4.9484355962       -0.3041628887        1.3534767364
 C          4.9724720372       -1.6794371277        1.5190725981
 C          4.7799764153       -2.5093798246        0.4249456252
 C          4.5781590291       -1.9740604556       -0.8375347409
 C          4.5601102527       -0.5993597297       -1.0110911936
 H          4.4099145118       -0.1455060776       -1.9767006146
 H          4.4280045981       -2.6227255994       -1.6853822732
 H          4.7837146800       -3.5794472741        0.5570302905
 H          5.1317529560       -2.0994634669        2.4992827042
 H          5.0955010310        0.3755935185        2.1777078854
 H          2.8697946108        2.3596450309        1.2794176489
 H          2.6013153835        1.9793370759       -2.2951301216
 H          0.9936614822        0.4155205586       -3.3610704012
 H         -0.4245796952       -1.0400567514       -1.9612093142
 H         -0.4241769416       -0.8153823620        1.7826473887
 C         -0.0259839576       -2.6363607907        0.7534255230
 C          1.0048150571       -3.1747896286       -0.1890696991
 C          1.3518165627       -2.9604880536        1.2512748074
 H          1.4828091276       -3.8201090936        1.8903016032
 H          2.0008801324       -2.1297465613        1.4858139225
 H          0.8684245791       -4.1827056375       -0.5493769451
 H          1.4327355575       -2.5056975720       -0.9185795799
 H         -0.8188058571       -3.3212018935        1.0351791017
