  62
        -98.93860323
 C         -1.6653850607       -1.0038108760       -0.0065028847
 C         -2.8774536056       -1.0121453783        0.7299527478
 C         -4.0567759287       -0.3747948533        0.1149662638
 C         -3.9302383570        0.1631202529       -1.1119269364
 C         -4.9675701404        0.8875963317       -1.9276376612
 C         -5.2160180740        2.3210855457       -1.4313281372
 C         -5.3299683275        2.4653315164        0.0840892201
 H         -4.4162088350        2.0914369936        0.5500328392
 H         -5.3949130332        3.5326933915        0.3117991498
 C         -6.5396927340        1.7792643077        0.7144216098
 H         -7.4521337260        2.1847887318        0.2715030240
 H         -6.5423972916        2.0396658597        1.7760083419
 C         -6.5804233623        0.2537954560        0.6004929634
 H         -6.8923553205       -0.0575535274       -0.3928458090
 H         -7.3490855823       -0.1027008142        1.2924392580
 C         -5.2841245354       -0.4493487473        0.9905254249
 H         -4.9704239710       -0.1000299852        1.9809151045
 H         -5.4917854874       -1.5188777559        1.1162562885
 H         -6.1242138244        2.6978926676       -1.9047790169
 H         -4.3804339572        2.9429617635       -1.7621976075
 H         -5.8922485145        0.3185134511       -1.9463786777
 H         -4.5856194792        0.9352042464       -2.9498889195
 O         -2.7481960208        0.1453450096       -1.7876677779
 C         -1.5961653728       -0.4179363159       -1.2696164622
 O         -0.6121101376       -0.3184410298       -2.0316203058
 O         -2.9770758585       -1.5386618965        1.8710137926
 C         -0.4711278484       -1.6780884144        0.6460343256
 C          0.4736027080       -0.6891899624        1.2849222754
 C          0.8560446185       -0.8172879398        2.6149133765
 C          1.7614821105        0.0653882704        3.1790475915
 C          2.3009328594        1.0965919392        2.4304683443
 C          1.9159776746        1.2373119270        1.1043954006
 C          1.0179500620        0.3457101401        0.5380752918
 H          0.7381868846        0.4551072421       -0.4992528011
 N          2.4761130297        2.2769038851        0.3226298182
 S          4.0922055413        2.0315919676       -0.0569971240
 O          4.8744860184        2.1689508026        1.1450163954
 O          4.3957689049        2.9541679940       -1.1271832207
 C          4.1516763656        0.3482036172       -0.6411792774
 C          4.4162584559       -0.6691712792        0.2531864858
 C          4.3675570631       -1.9796426943       -0.1930976483
 C          4.0513462731       -2.2474956894       -1.5159935149
 C          3.7840093113       -1.2144137806       -2.4007864968
 C          3.8284672977        0.0977631794       -1.9594989401
 H          3.6270046321        0.9288497034       -2.6167859925
 H          3.5314417661       -1.4258222187       -3.4275787137
 H          4.0127734436       -3.2681753935       -1.8636197585
 H          4.5699837750       -2.7857019058        0.4935004196
 H          4.6578548799       -0.4175420030        1.2727704187
 H          1.9656653340        2.4204024667       -0.5386619952
 H          3.0196662983        1.7847184174        2.8450079655
 H          2.0496484194       -0.0494762015        4.2127762129
 H          0.4324993470       -1.6119193311        3.2111581686
 H         -0.8984022610       -2.2984180217        1.4451951801
 C          0.3017348382       -2.5782269106       -0.3002532764
 C          1.0523015431       -3.7474607622        0.2589114154
 C         -0.1899600501       -3.9710494519       -0.5490111242
 H         -0.0970539982       -4.3785515991       -1.5442822269
 H         -1.0869307814       -4.2826617223       -0.0334744389
 H          2.0029719800       -4.0037512485       -0.1803143246
 H          0.9983039811       -3.9139062484        1.3238410312
 H          0.7410389072       -2.0466941543       -1.1346893864
