  62
        -98.94650626
 C         -2.2951815176        0.6321515739        0.0749039947
 C         -1.3962635779        0.8467043563       -0.9928884562
 C         -0.6346671122        2.1072583741       -0.9700262167
 C         -0.7990034719        2.9469245198        0.0667065234
 C         -0.0607999916        4.2308823599        0.3278112880
 C          1.1805982208        3.9726388214        1.2003526500
 C          2.4546001151        3.6524786302        0.4211644363
 H          2.7836188963        4.5435904459       -0.1184870208
 H          3.2262914708        3.4028635924        1.1532346396
 C          2.3224658692        2.4881279005       -0.5636171390
 H          3.3224400009        2.0922814015       -0.7557872022
 H          1.7489318987        1.6891359781       -0.0903532596
 C          1.6809380381        2.8931380800       -1.8985219557
 H          1.6660264323        3.9810102784       -1.9677307835
 H          2.3074802841        2.5375415039       -2.7188681087
 C          0.2699817381        2.3421534588       -2.1494105942
 H         -0.2482011107        3.0036080124       -2.8522891560
 H          0.3448572202        1.3649806783       -2.6355438295
 H          0.9557396427        3.1405872291        1.8739342384
 H          1.3685492888        4.8545592691        1.8167218104
 H          0.2100803636        4.7171670711       -0.6050030353
 H         -0.7465795481        4.8788074843        0.8778128362
 O         -1.6657622067        2.6951307403        1.0865542425
 C         -2.4199752282        1.5381147173        1.1259988360
 O         -3.1581595998        1.4319114764        2.1282109120
 H         -0.8733393538       -0.8362733940        1.6165034586
 C         -0.9794374047       -1.7072333770        0.9865556509
 C         -2.0865679265       -1.8185798396        0.1549230639
 C         -2.2144642331       -2.9581577864       -0.6283526800
 C         -1.2357150139       -3.9375157899       -0.6009516107
 C         -0.1049246951       -3.7920416170        0.1821619585
 C          0.0249708230       -2.6607986560        0.9804403930
 N          1.1598667865       -2.4571785699        1.7899256508
 S          2.0523801374       -1.0510281786        1.6125945374
 O          3.1297479186       -1.1766453468        2.5705724582
 O          1.2005204222        0.1007449239        1.7593445282
 C          2.7317288291       -1.1270465161       -0.0361381817
 C          4.0863813734       -1.3540217990       -0.1846591483
 C          4.6195337891       -1.4329923420       -1.4608184786
 C          3.7908958006       -1.2917245003       -2.5637381970
 C          2.4327687576       -1.0712388465       -2.3973340006
 C          1.8926773209       -0.9867317342       -1.1234747565
 H          0.8390468690       -0.8076014168       -0.9785977354
 H          1.7786559405       -0.9618255263       -3.2477818282
 H          4.2040631931       -1.3527271592       -3.5581436753
 H          5.6760974303       -1.6036551322       -1.5905346905
 H          4.6902035794       -1.4550722811        0.7026284721
 H          1.7875204565       -3.2486132765        1.8235054934
 H          0.6710348042       -4.5425313049        0.1779143800
 H         -1.3453472154       -4.8175078284       -1.2161930599
 H         -3.0738761573       -3.0749419589       -1.2680019098
 C         -3.0703260526       -0.6723301078        0.1512735212
 H         -3.5937281588       -0.6607922385        1.1187179413
 C         -4.0935477302       -0.7545404059       -0.9615888424
 C         -5.3555621693       -1.5395344072       -0.7702851730
 C         -5.4007218101       -0.0419753043       -0.7952421993
 H         -5.8336895384        0.4491831128       -1.6536244210
 H         -5.5622188724        0.4835464871        0.1350896248
 H         -5.7629598681       -2.0757985261       -1.6139857302
 H         -5.4987806551       -2.0334315678        0.1789735192
 H         -3.6390471613       -0.7428604215       -1.9453439502
 O         -1.2246924234        0.0133933940       -1.9231443136
