  62
        -98.94839178
 C          1.2916638925        1.5663460653        0.1939138706
 C          1.6683476763        0.6335225160        1.1895261789
 C          2.9198956548       -0.0915497921        0.9506117839
 C          3.6197723125        0.1409560215       -0.1748562166
 C          4.9394421571       -0.4821766913       -0.5418813017
 C          4.8214514487       -1.8613242619       -1.2038315264
 C          4.4236952711       -2.9999011457       -0.2640173163
 H          4.5963199801       -3.9347629807       -0.8010055566
 H          5.0798354943       -2.9983077355        0.6072021742
 C          2.9590133751       -2.9600476352        0.1924908765
 H          2.3767894438       -2.3154923972       -0.4707413779
 H          2.5193693991       -3.9569232818        0.1091531341
 C          2.7486973869       -2.4978948977        1.6341061029
 H          1.6706104264       -2.4597004198        1.8123639031
 H          3.1792537928       -3.2302944086        2.3214160444
 C          3.3420867393       -1.1200131653        1.9557888498
 H          2.9657310902       -0.8054634842        2.9325623924
 H          4.4293196311       -1.1829894418        2.0031783138
 H          4.0985245621       -1.7973335061       -2.0205969325
 H          5.7954325435       -2.0993425743       -1.6379712744
 H          5.4167173402        0.1991330431       -1.2497067644
 H          5.5675252915       -0.5570595602        0.3464581924
 O          3.2059167477        1.0194980469       -1.1262499509
 C          2.0214889229        1.7294321271       -0.9829680984
 O          1.7440669700        2.4624716018       -1.9514927470
 O          0.9923658314        0.4244721758        2.2334959429
 C          0.0067780485        2.3519854065        0.3746024161
 C         -1.0215453542        1.9324734374       -0.6478034245
 C         -1.8934542564        2.8171142828       -1.2701904438
 C         -2.8373095305        2.3506038668       -2.1692609466
 C         -2.9556293389        0.9999159312       -2.4432447549
 C         -2.0913804069        0.1064478147       -1.8209100042
 C         -1.1307152505        0.5809744177       -0.9433981953
 H         -0.4454738980       -0.1196077745       -0.4924907202
 N         -2.1744306317       -1.2755071734       -2.0494942963
 S         -1.9003179545       -2.3199760495       -0.7689227726
 O         -0.4901612685       -2.4194124764       -0.4945818779
 O         -2.5515482504       -3.5499769884       -1.1694910856
 C         -2.7828811600       -1.5931486044        0.6011570184
 C         -4.1635195291       -1.6175782753        0.5373415692
 C         -4.8962449535       -1.0186259549        1.5477932558
 C         -4.2386523001       -0.4009937065        2.6013386886
 C         -2.8542602127       -0.3908578607        2.6545478409
 C         -2.1143564321       -0.9917090761        1.6472016115
 H         -1.0355622688       -0.9847712058        1.6722225797
 H         -2.3332710838        0.0861736209        3.4695461569
 H         -4.8068464402        0.0724540738        3.3864547506
 H         -5.9735265304       -1.0313176470        1.5103318545
 H         -4.6368091159       -2.1179222724       -0.2919349593
 H         -2.9569218934       -1.5687567436       -2.6154555882
 H         -3.7000764666        0.6389460128       -3.1360472632
 H         -3.5004971590        3.0495392291       -2.6557227294
 H         -1.8291154273        3.8715612052       -1.0577639843
 H         -0.3757487260        2.0548322845        1.3637667473
 C          0.2777903201        3.8415712220        0.3872365167
 C         -0.5791789938        4.7586562354        1.2065110349
 C          0.8260065367        4.4648396548        1.6350467757
 H          1.5711681961        5.2401657501        1.5394426085
 H          0.9781885216        3.8176124297        2.4865827833
 H         -0.7988619854        5.7418767073        0.8186008296
 H         -1.3832602614        4.3169739185        1.7753516622
 H          0.6587673919        4.2029813182       -0.5610090206
