  62
        -98.94080535
 C          2.5867402510        1.3216275083        0.2220632714
 C          2.4181850545        0.2226880712       -0.6580239643
 C          3.5538077846       -0.7121704021       -0.7409829071
 C          4.6628937689       -0.4804752921       -0.0174409471
 C          5.8664680641       -1.3754732529        0.0267095079
 C          5.7503297265       -2.4025766313        1.1615691305
 C          4.4125292236       -3.1420173831        1.1907743127
 H          4.4566677368       -3.8624301360        2.0103774211
 H          3.6159558822       -2.4332706054        1.4293986371
 C          4.0626850330       -3.8731070720       -0.1129040376
 H          4.9613082314       -4.0052656960       -0.7167080682
 H          3.6881434627       -4.8688540677        0.1335179742
 C          2.9835265885       -3.1895317132       -0.9551348208
 H          2.1108125337       -2.9735417626       -0.3325557421
 H          2.6623511742       -3.8906364820       -1.7304681474
 C          3.4058934379       -1.8933568852       -1.6583880645
 H          4.3260224437       -2.0630283072       -2.2216388863
 H          2.6135625733       -1.6287107186       -2.3651525543
 H          6.5637313063       -3.1231399981        1.0597734313
 H          5.8739974752       -1.8817151692        2.1137923752
 H          5.9704512492       -1.8842548697       -0.9295645538
 H          6.7490583441       -0.7567563107        0.1974669385
 O          4.7921980241        0.5879578922        0.8089993136
 C          3.7573854660        1.4932995128        0.9684208355
 O          3.9974340439        2.3985538867        1.7916657971
 H         -0.6242048747        1.9139812093       -1.2161170331
 C         -0.7887525148        1.5068901494       -0.2307264805
 C          0.1882991250        1.6490553074        0.7404316341
 C         -0.0259547740        1.0802517925        1.9922313661
 C         -1.1949018521        0.3946516929        2.2639603320
 C         -2.1688946142        0.2530322566        1.2907875605
 C         -1.9535965619        0.7969188105        0.0319927138
 N         -2.9288684517        0.6551320244       -0.9672394242
 S         -3.7429164440       -0.8003879768       -1.1330747122
 O         -2.9457790057       -1.9295556137       -0.7145649081
 O         -4.2089208386       -0.8135747664       -2.5029773704
 C         -5.1471446903       -0.6105757172       -0.0517158805
 C         -5.9127063371        0.5329231398       -0.1705004544
 C         -7.0140430275        0.6904461633        0.6554141432
 C         -7.3323686192       -0.2937830674        1.5793190546
 C         -6.5566406180       -1.4379252595        1.6839532968
 C         -5.4528919661       -1.6008384772        0.8610583256
 H         -4.8178212120       -2.4712364697        0.9116011880
 H         -6.8054207029       -2.2025904598        2.4022658166
 H         -8.1898593757       -0.1685724909        2.2214873885
 H         -7.6195574131        1.5789932339        0.5768189283
 H         -5.6337618665        1.2727843492       -0.9018970294
 H         -2.6404518242        1.0121535377       -1.8666276653
 H         -3.0756088113       -0.2937687154        1.4913926971
 H         -1.3496993087       -0.0380869050        3.2408022630
 H          0.7423647840        1.1752509192        2.7477207570
 C          1.4937089697        2.3511877101        0.4641626703
 H          1.7985083231        2.8719390333        1.3858775155
 C          1.3769834599        3.4188759942       -0.6138100506
 C          2.6089456658        4.0061741094       -1.2335773337
 C          1.6816380261        3.1677708995       -2.0586440064
 H          1.0707015232        3.6620171731       -2.8004966207
 H          1.9980620967        2.1778569109       -2.3466446125
 H          2.6405909038        5.0703831326       -1.4117059448
 H          3.5594845511        3.5824790554       -0.9431005090
 H          0.5668129547        4.1106272368       -0.4030181895
 O          1.3892394437        0.0174636598       -1.3532617538
