  62
        -98.93371854
 C         -1.3291453775       -1.8100257409       -0.1654127669
 C         -2.3813114152       -1.5690697279        0.7497982489
 C         -3.2929850234       -0.4704397646        0.4063605158
 C         -3.1159159267        0.2106756559       -0.7404179768
 C         -3.9511871934        1.3641852959       -1.2254998265
 C         -3.5122741600        2.7200285223       -0.6556755260
 C         -3.8514566153        2.9426748213        0.8187273549
 H         -3.6846598145        4.0005072708        1.0315149408
 H         -4.9105536412        2.7411598312        0.9821718120
 C         -3.0117692718        2.1060621821        1.7948130603
 H         -2.1242823986        1.7280302417        1.2799611136
 H         -2.6597479832        2.7415511398        2.6109935487
 C         -3.7563207068        0.9287781638        2.4263156942
 H         -4.5729201498        1.3038022064        3.0470588775
 H         -3.0593828640        0.3923295288        3.0759806478
 C         -4.3282918435       -0.0749800141        1.4153423795
 H         -4.6277012525       -0.9748316129        1.9581167000
 H         -5.2046582829        0.3444304908        0.9219245175
 H         -4.0069798396        3.4982361298       -1.2410784693
 H         -2.4343916533        2.8264243033       -0.7998284010
 H         -5.0000411580        1.1882265516       -0.9865788140
 H         -3.8410333699        1.3939319624       -2.3113947481
 O         -2.1254901659       -0.0856677954       -1.6213176730
 C         -1.1800973248       -1.0677355514       -1.3409595286
 O         -0.2941039200       -1.1750812333       -2.2023925593
 O         -2.5433373154       -2.2321436881        1.8103513612
 C         -0.2775814969       -2.8403755355        0.1944597564
 C          0.9524621335       -2.1784124418        0.7863610200
 C          2.0511986322       -2.9188697836        1.2175910676
 C          3.1696312387       -2.3009220448        1.7493214033
 C          3.2086727393       -0.9286003224        1.9194217652
 C          2.0958844461       -0.1851412643        1.5587283664
 C          0.9970280211       -0.8042492281        0.9804023160
 H          0.1513515315       -0.1928387174        0.6930434260
 N          2.0882915934        1.2100252150        1.7995551685
 S          2.9565841055        2.1438378140        0.7128181452
 O          4.2952076326        1.6190535130        0.6343761867
 O          2.8217198195        3.5075260115        1.1721260681
 C          2.1138431114        1.9502074991       -0.8451096852
 C          1.0494385971        2.7831962775       -1.1275801436
 C          0.3609999900        2.6072627411       -2.3168405974
 C          0.7429536513        1.6031574427       -3.1925423067
 C          1.8074308218        0.7693636002       -2.8891936975
 C          2.4995428513        0.9394106293       -1.7014563395
 H          3.3307179502        0.3101309948       -1.4256802843
 H          2.0846618958       -0.0226498558       -3.5646083408
 H          0.1988988983        1.4572435272       -4.1119782702
 H         -0.4725798633        3.2489256726       -2.5567052795
 H          0.7912134131        3.5578157254       -0.4220325263
 H          1.1537949137        1.5899139287        1.8656237925
 H          4.0689875736       -0.4272703072        2.3309326481
 H          4.0156943038       -2.8990254817        2.0515348511
 H          2.0342506875       -3.9939906241        1.1497801482
 H         -0.7255138767       -3.4414558644        1.0036392013
 C         -0.0275838962       -3.7637062722       -0.9985737629
 C          1.3078807184       -4.0130273420       -1.6263792279
 C          0.6141163455       -5.1153187953       -0.8854871142
 H          0.1854152399       -5.9257748265       -1.4564869915
 H          1.0028817493       -5.4272179912        0.0709692962
 H          1.3507886255       -4.0608323768       -2.7037473578
 H          2.1750782799       -3.5520111358       -1.1813442714
 H         -0.8580110538       -3.7137027224       -1.6954928636
