  62
        -98.94127875
 C         -2.2967385691       -1.1756942112        0.2632086526
 C         -1.8312916599       -0.2388134417       -0.6923929682
 C         -2.4903725807        1.0776577079       -0.6688295892
 C         -3.4541793807        1.3233955780        0.2363176508
 C         -4.1675845314        2.6336757377        0.3996655199
 C         -3.4524204518        3.5304445390        1.4199614390
 C         -1.9478651819        3.6582610997        1.1800284586
 H         -1.5538853321        4.3368208606        1.9399572380
 H         -1.4766450813        2.6859201201        1.3435427793
 C         -1.5708078225        4.1752998088       -0.2152387219
 H         -2.4331153229        4.6602979579       -0.6740354021
 H         -0.7926267529        4.9336685494       -0.1069692027
 C         -1.0247122720        3.1060770984       -1.1635547411
 H         -0.2167869516        2.5567197093       -0.6735555908
 H         -0.5982405025        3.6116468379       -2.0333643016
 C         -2.0448622115        2.0883343973       -1.6878717101
 H         -2.9042975019        2.6111750865       -2.1123232403
 H         -1.5598439513        1.5165631570       -2.4841748897
 H         -3.9123599124        4.5199315287        1.3929932583
 H         -3.6068072313        3.1120217697        2.4174732994
 H         -4.2233445219        3.1347060769       -0.5646842405
 H         -5.1801949212        2.4322587674        0.7534819103
 O         -3.8546758799        0.4083680885        1.1564585316
 C         -3.2793093891       -0.8511160911        1.2019438025
 O         -3.7143267185       -1.5792373706        2.1168700532
 H         -0.0777362590       -0.9485952287        1.6672739220
 C          0.4811912413       -1.6319278089        1.0386790024
 C         -0.2116638083       -2.5487485400        0.2567302633
 C          0.5193270121       -3.4142900702       -0.5464732261
 C          1.9028107820       -3.3696253793       -0.5487696165
 C          2.5868682816       -2.4588138983        0.2334092227
 C          1.8662815113       -1.5672835181        1.0189840121
 N          2.5386140909       -0.6261877670        1.8157982612
 S          3.8800711502        0.2001050633        1.2582646502
 O          4.9744201208       -0.7245784261        1.0972646708
 O          4.0769306998        1.2595557042        2.2216705693
 C          3.4404194795        0.8991390918       -0.3217556203
 C          2.8596112287        2.1516377114       -0.3414028811
 C          2.5073643981        2.7097253902       -1.5591372715
 C          2.7224977683        2.0006451994       -2.7306667410
 C          3.3039115391        0.7433572898       -2.6943880301
 C          3.6738600897        0.1867023810       -1.4806910897
 H          4.1470970203       -0.7786521187       -1.4200223690
 H          3.4719800692        0.1940889391       -3.6066864797
 H          2.4384490579        2.4323804785       -3.6773436313
 H          2.0658872775        3.6928108199       -1.5900750722
 H          2.7124077186        2.6722782821        0.5915881785
 H          1.9259036006       -0.0054677970        2.3226901908
 H          3.6638205616       -2.4271713176        0.2551056324
 H          2.4572706723       -4.0570902695       -1.1694644060
 H          0.0095829224       -4.1210107910       -1.1795499055
 C         -1.7190993983       -2.5766480908        0.3539744036
 H         -1.9736374678       -2.9215286001        1.3707556340
 C         -2.3627855179       -3.5661343320       -0.6092670154
 C         -3.7017661581       -3.2991099033       -1.2281368254
 C         -2.4682533183       -3.2832511232       -2.0770483756
 H         -2.3142155280       -4.0967791137       -2.7708089050
 H         -2.0950253990       -2.3330223433       -2.4242956465
 H         -4.1838632987       -2.3583770234       -1.0041870660
 H         -4.3893350977       -4.1256352138       -1.3294763546
 H         -2.1726403972       -4.5957719116       -0.3225482946
 O         -0.9168271299       -0.4732660118       -1.5228330082
