  62
        -98.93718277
 C          1.8145178555        1.0579708986        0.3028897567
 C          2.1385574285       -0.1403128980       -0.3770151057
 C          3.4579050363       -0.7220635626       -0.0755005995
 C          4.2513280145       -0.1314498858        0.8353160753
 C          5.6427210129       -0.5655641097        1.1982577155
 C          6.6366973844       -0.1134572115        0.1093003480
 C          7.2969909719       -1.2598129134       -0.6570306015
 H          7.7978668226       -0.8267847980       -1.5255271043
 H          8.0648530055       -1.7126174648       -0.0262045614
 C          6.3595662234       -2.3763105407       -1.1272955974
 H          6.1455049276       -3.0503296631       -0.2963998930
 H          6.9088840926       -2.9614465481       -1.8679967652
 C          5.0310848937       -1.9218443171       -1.7454554042
 H          5.1183209950       -0.9105556823       -2.1431874007
 H          4.8086165286       -2.5774164481       -2.5899376779
 C          3.8230386324       -1.9929910351       -0.7924982428
 H          2.9343097313       -2.2523072615       -1.3753554400
 H          3.9796331115       -2.7921318167       -0.0624681993
 H          7.4231392508        0.4913790430        0.5631550953
 H          6.1060506746        0.5357382683       -0.5903055374
 H          5.8884079871       -0.1006776071        2.1533307891
 H          5.6719980287       -1.6461862193        1.3193519708
 O          3.8957933767        1.0024452897        1.4914829967
 C          2.6875838964        1.6251984812        1.2381412371
 O          2.5042913843        2.6677350998        1.8969965120
 H         -0.5174468306       -0.6631298050       -0.1707015349
 C         -1.0471129409       -0.0882979244        0.5744040315
 C         -0.6313077381        1.2053533315        0.8553985367
 C         -1.3196061198        1.9289637892        1.8216233364
 C         -2.3964482459        1.3701515175        2.4885661642
 C         -2.8086711088        0.0806506468        2.2047359502
 C         -2.1212077622       -0.6518881457        1.2459064550
 N         -2.5464613002       -1.9609651798        0.9345627798
 S         -4.1301891488       -2.0740884653        0.3935247853
 O         -5.0225835832       -2.0386576178        1.5251935736
 O         -4.1846644914       -3.2696125842       -0.4176846598
 C         -4.3560665659       -0.6138550310       -0.6059998767
 C         -5.1408482226        0.4226458888       -0.1439845123
 C         -5.2356400164        1.5790144170       -0.9015031128
 C         -4.5427918931        1.6801584162       -2.0975713628
 C         -3.7596401600        0.6288298740       -2.5488202791
 C         -3.6606241330       -0.5292581331       -1.7958421960
 H         -3.0615798199       -1.3661088998       -2.1184460929
 H         -3.2212792930        0.7072914576       -3.4799137182
 H         -4.6133758684        2.5836141183       -2.6826425589
 H         -5.8442010193        2.3982477283       -0.5543330790
 H         -5.6603114648        0.3027193428        0.7924722375
 H         -1.9264087595       -2.4249759546        0.2852999482
 H         -3.6497517779       -0.3701545808        2.7064797244
 H         -2.9208987244        1.9448500407        3.2365078605
 H         -0.9986207790        2.9334685494        2.0556769783
 C          0.5160718485        1.8228192610        0.0925104124
 H          0.6948948533        2.8219346768        0.5110989469
 C          0.1449083438        1.9758437363       -1.3711763221
 C         -0.7938444975        3.0728232239       -1.7689166143
 C          0.6561852270        3.1554258869       -2.1392754847
 H          0.9370639318        3.0145812731       -3.1722475694
 H          1.2793895652        3.8633288841       -1.6119201818
 H         -1.5136282020        2.8754558125       -2.5475809048
 H         -1.1559981369        3.7269635623       -0.9906620496
 H          0.0723694470        1.0331209291       -1.8964348991
 O          1.3801240801       -0.7220248821       -1.2004659369
