  62
        -98.94045899
 C         -1.9619284149       -1.2200829534        0.5165997774
 C         -1.9865891561        0.1033150260        1.0316858102
 C         -3.1620303003        0.9143913305        0.6998346149
 C         -4.1539565110        0.3763676600       -0.0321299131
 C         -5.4463045088        1.0491301991       -0.4078589103
 C         -5.3543705494        1.9348340426       -1.6576855077
 C         -4.5936524326        3.2474021580       -1.4670395931
 H         -4.7900726088        3.8631657144       -2.3470107726
 H         -4.9963769558        3.7771741241       -0.6031116147
 C         -3.0759888218        3.0793332610       -1.3104390106
 H         -2.7815456734        2.0864433208       -1.6590891647
 H         -2.5614334123        3.8044880232       -1.9451922201
 C         -2.5583903668        3.2773978090        0.1141383740
 H         -2.7298242657        4.3102114308        0.4253429352
 H         -1.4794110549        3.1036619720        0.1059053903
 C         -3.1894316549        2.3425356336        1.1548076097
 H         -2.6068996680        2.4088044577        2.0769850161
 H         -4.2124659535        2.6538975984        1.3653972583
 H         -4.8912231712        1.3584601589       -2.4620380706
 H         -6.3755462353        2.1719628241       -1.9650874479
 H         -6.1654204361        0.2508865507       -0.6043371159
 H         -5.8070831051        1.6421685492        0.4331740885
 O         -4.0972486968       -0.8936558490       -0.5071172438
 C         -2.9953371179       -1.7104827880       -0.2826349924
 O         -3.0846478115       -2.8187671276       -0.8467150241
 H          1.8650078944       -1.4131876353        1.1965968898
 C          1.6262609531       -1.6090514052        0.1598856971
 C          0.3277135518       -1.9520055636       -0.1902015307
 C          0.0390625845       -2.1885675232       -1.5298730372
 C          1.0228851043       -2.0651219560       -2.4944000084
 C          2.3146087025       -1.7135483543       -2.1432456023
 C          2.6166505581       -1.4878820619       -0.8077885548
 N          3.9391856899       -1.1297747403       -0.4635554601
 S          4.4423518999        0.4163017595       -0.8741007463
 O          3.9921451809        0.7072671514       -2.2102271678
 O          5.8689330890        0.4478558101       -0.6496520869
 C          3.6341565000        1.4747628318        0.3136171989
 C          2.2636937914        1.6309469413        0.2383390062
 C          1.6188004719        2.3620621625        1.2231838772
 C          2.3535868787        2.9372503356        2.2488086893
 C          3.7309979847        2.7857139495        2.3011345779
 C          4.3786970134        2.0357796868        1.3327078874
 H          5.4446520733        1.8748010275        1.3424187357
 H          4.2982023543        3.2378841394        3.0988803589
 H          1.8436816960        3.5021997575        3.0131641503
 H          0.5436477054        2.4427979806        1.2059934739
 H          1.7181405258        1.1770416002       -0.5741819217
 H          4.1644472936       -1.3028243753        0.5065452880
 H          3.0874463845       -1.5955826112       -2.8847988193
 H          0.7815801004       -2.2460551894       -3.5311085440
 H         -0.9658906151       -2.4672477165       -1.8086807040
 C         -0.7428266035       -2.0541564962        0.8711742262
 H         -0.3426243869       -1.6002720352        1.7883239840
 C         -1.0541808373       -3.5105480955        1.1559825613
 C         -0.1247790844       -4.2977780433        2.0281857435
 C         -1.4832542548       -3.9151556499        2.5328468752
 H         -2.2362138412       -4.6823978051        2.6313218894
 H         -1.5491724811       -3.1412977796        3.2838190779
 H          0.0600461180       -5.3315127727        1.7799695491
 H          0.7308900192       -3.7864112484        2.4423481598
 H         -1.5157877806       -4.0213718527        0.3213352385
 O         -1.0686553887        0.5798681749        1.7494966723
