  62
        -98.93682874
 C         -2.4763421454       -0.3867033229       -0.1743710615
 C         -2.1075979081       -1.4425790802       -1.0399509723
 C         -1.4868967925       -2.6095500908       -0.4062017804
 C         -1.3092274898       -2.6251174657        0.9273732893
 C         -0.7091192660       -3.7493061695        1.7280614642
 C          0.8249022978       -3.7301245723        1.7635644491
 C          1.5063378641       -4.1795731234        0.4705430156
 H          2.5576386505       -4.3573899610        0.7051685705
 H          1.0785927970       -5.1278122490        0.1424221702
 C          1.4256745275       -3.1526215050       -0.6670434680
 H          1.1793739449       -2.1696170898       -0.2586303203
 H          2.4047069747       -3.0520334591       -1.1429205297
 C          0.4260500556       -3.4912894184       -1.7732096347
 H          0.4172674596       -2.6550889091       -2.4779394810
 H          0.7586760532       -4.3838126909       -2.3093693742
 C         -1.0109875926       -3.7236466889       -1.2893815610
 H         -1.0811177664       -4.6780902082       -0.7670980003
 H         -1.6646527823       -3.7532619896       -2.1651911612
 H          1.1519807861       -2.7165868672        2.0085379948
 H          1.1427274567       -4.3941749618        2.5709335302
 H         -1.0558366977       -4.7063073947        1.3364177585
 H         -1.0803003064       -3.6338857942        2.7486764442
 O         -1.6948946554       -1.5987572683        1.7287574933
 C         -2.2433659971       -0.4395576843        1.2007101882
 O         -2.4923972512        0.4370453402        2.0487216810
 O         -2.2959496377       -1.4112607434       -2.2884477848
 C         -3.0416685338        0.8938864056       -0.7816200759
 C         -2.1620358446        2.0268798938       -0.3077620611
 C         -2.5157206273        3.1659673443        0.4021336208
 C         -1.5448168209        4.0582773760        0.8309604635
 C         -0.2035143087        3.8308994893        0.5955398435
 C          0.1650780488        2.7009577185       -0.1263749756
 C         -0.8108230227        1.8438660598       -0.5975390659
 H         -0.5059658567        0.9735791761       -1.1619360717
 N          1.5153817961        2.4045837721       -0.3924720403
 S          1.9363452933        0.7641784658       -0.3738928127
 O          1.6972477436        0.2199421478       -1.6869202508
 O          1.2997035672        0.0956227964        0.7381762951
 C          3.6944045063        0.8831181854       -0.0983649957
 C          4.1985798226        0.6925032957        1.1738801652
 C          5.5636523721        0.8181829159        1.3802559681
 C          6.3959126458        1.1346517609        0.3171861582
 C          5.8753040866        1.3222083085       -0.9548240083
 C          4.5119832781        1.1955650109       -1.1682367303
 H          4.0618687209        1.3207408917       -2.1391202471
 H          6.5256318962        1.5650944199       -1.7795110183
 H          7.4574241044        1.2327459462        0.4806314979
 H          5.9707569247        0.6686053439        2.3672047613
 H          3.5127803629        0.4416770351        1.9675039528
 H          2.1509976085        2.9556350673        0.1687763905
 H          0.5489220881        4.5091951555        0.9681698257
 H         -1.8444255556        4.9338114900        1.3872849211
 H         -3.5387858722        3.3671593275        0.6621507081
 H         -2.8603793497        0.7869060363       -1.8655606795
 C         -4.5524171089        0.9042465853       -0.6165154997
 C         -5.2898586956        1.3786787418        0.5960482915
 C         -5.4292165954        2.1171848572       -0.7032633014
 H         -6.3627089285        2.0193866331       -1.2377913255
 H         -4.9662009500        3.0832016724       -0.8177786725
 H         -6.1258712267        0.7844203507        0.9361827839
 H         -4.7125438488        1.7993053330        1.4028528395
 H         -4.9539353896        0.0059836230       -1.0818912103
