  62
        -98.94946468
 C         -2.0495640989       -0.3604356320       -0.3203353336
 C         -1.3928588455       -1.2877532950       -1.1622891222
 C         -1.0402895526       -2.5735927619       -0.5496639408
 C         -1.3023645389       -2.7834994154        0.7533538579
 C         -1.0067006872       -4.0411908091        1.5248989100
 C          0.4392316936       -4.1291366145        2.0321330042
 C          1.4814094730       -4.4610266202        0.9636560382
 H          2.4022031161       -4.7265168437        1.4869707950
 H          1.1589231623       -5.3388763976        0.4018349966
 C          1.7820673380       -3.3070804519       -0.0027298692
 H          1.4445801388       -2.3673800375        0.4427149870
 H          2.8634218904       -3.2188662621       -0.1373588186
 C          1.1653764818       -3.4694380936       -1.3920799532
 H          1.4329064808       -2.5957012843       -1.9898896169
 H          1.5932803010       -4.3495914316       -1.8778076752
 C         -0.3627683831       -3.6060147659       -1.4021259707
 H         -0.7107829731       -3.4635641261       -2.4285918954
 H         -0.6493659630       -4.6050073165       -1.0729937098
 H          0.7003615133       -3.1804129586        2.5085543402
 H          0.4711799572       -4.9084325556        2.7975234456
 H         -1.6757687086       -4.0387263497        2.3881890696
 H         -1.2334009445       -4.9139950683        0.9112798731
 O         -1.9088666951       -1.8553288824        1.5384022906
 C         -2.2873491575       -0.6231884476        1.0291323614
 O         -2.8318075208        0.1292861935        1.8606207803
 O         -1.1161429210       -1.0545505479       -2.3707301275
 C         -2.4446126661        0.9999136101       -0.8712789419
 C         -1.7750036039        2.0727933466       -0.0480249741
 C         -2.4302026501        3.1743158492        0.4839636582
 C         -1.7471632929        4.0606232196        1.3001383738
 C         -0.4163273405        3.8596625396        1.6152550985
 C          0.2545428939        2.7697154449        1.0685037874
 C         -0.4201493099        1.9159538546        0.2147891879
 H          0.0965021039        1.0692723504       -0.2058160404
 N          1.6047492654        2.5367242273        1.3556893996
 S          2.3180255703        1.0281334435        1.2396384983
 O          1.3926795962       -0.0514693018        1.4887680776
 O          3.4543560797        1.1118386902        2.1335427143
 C          2.9173862551        1.0030353120       -0.4374304861
 C          2.3136927795        0.2171546507       -1.3966233530
 C          2.7958149131        0.2509697523       -2.6959193457
 C          3.8712319074        1.0654300174       -3.0128215389
 C          4.4727210726        1.8463732069       -2.0368157615
 C          3.9924980193        1.8177395085       -0.7382077443
 H          4.4355443287        2.4000774766        0.0524051647
 H          5.3109723825        2.4770073712       -2.2854395596
 H          4.2415885485        1.0890583580       -4.0255111727
 H          2.3184879001       -0.3553653707       -3.4497790326
 H          1.4768056993       -0.4082183424       -1.1262702205
 H          1.9936651664        3.0933461521        2.1011946563
 H          0.1003152875        4.5318680725        2.2831959543
 H         -2.2676615731        4.9092246404        1.7179681369
 H         -3.4770673708        3.3291923491        0.2804771996
 H         -2.0409753352        1.0350491507       -1.8941048876
 C         -3.9512219829        1.1334401006       -0.9335637318
 C         -4.5888748889        2.0304343308       -1.9512156988
 C         -4.6844388080        0.5425101583       -2.0990377780
 H         -5.6355132988        0.0637791902       -1.9203079228
 H         -4.0918292372        0.0628400545       -2.8641881487
 H         -5.4790120275        2.5742429932       -1.6731553207
 H         -3.9361508000        2.5652097548       -2.6242392055
 H         -4.4146820841        1.0520771421        0.0435698027
