  62
        -98.94268257
 C         -2.0242228906       -0.6642826485       -0.4559631945
 C         -1.0174478511       -1.2718471003       -1.2415047719
 C         -0.4416146279       -2.5140831919       -0.7134200914
 C         -0.8715730330       -2.9935900450        0.4671042555
 C         -0.4085803060       -4.2563064232        1.1431979085
 C          1.0578287201       -4.2547094229        1.6177381816
 C          2.0377276232       -4.8978282375        0.6283308845
 H          2.7639316247       -5.4904888210        1.1884316968
 H          1.4884420725       -5.5934509381       -0.0076924420
 C          2.8331607642       -3.9246552816       -0.2467205420
 H          3.6482064977       -3.4993664611        0.3438758936
 H          3.2797391021       -4.4969530102       -1.0631410122
 C          2.0443366639       -2.7534709137       -0.8334800430
 H          2.6757456127       -2.2640220829       -1.5789493711
 H          1.8572139679       -2.0128457949       -0.0510392546
 C          0.6943857890       -3.1369670537       -1.4730427443
 H          0.6417944020       -2.7472870984       -2.4920081134
 H          0.5810555046       -4.2195110665       -1.5121794141
 H          1.3599659424       -3.2319676105        1.8476009848
 H          1.0929118992       -4.8195393272        2.5509324937
 H         -1.0644567614       -4.3830103840        2.0069237467
 H         -0.5740448692       -5.1001511305        0.4694087393
 O         -1.8399795222       -2.3778084262        1.1967393649
 C         -2.4069884387       -1.1834346876        0.7804311153
 O         -3.2349547987       -0.7060303957        1.5807239526
 H         -0.1142579181        1.1345406628       -0.1914227318
 C         -0.7801910253        1.7715631116        0.3669251132
 C         -2.1442639099        1.7083785420        0.1086844887
 C         -2.9942847936        2.5430773491        0.8192700644
 C         -2.4836658201        3.3822104280        1.7963078337
 C         -1.1342814129        3.3906447540        2.0964233207
 C         -0.2716298180        2.5700056596        1.3749511752
 N          1.1016014438        2.5514382356        1.6446315141
 S          2.0867565660        1.2473308922        1.2840819980
 O          1.3810973360       -0.0120146206        1.3207568091
 O          3.1903555215        1.3799713593        2.2132206807
 C          2.6796717958        1.6359776819       -0.3504028740
 C          2.2520568486        0.9412700450       -1.4626539497
 C          2.7338558702        1.3108696574       -2.7096525902
 C          3.6299896338        2.3612228085       -2.8245828667
 C          4.0546196999        3.0478474446       -1.6964020235
 C          3.5760188768        2.6841240838       -0.4492461208
 H          3.8873172321        3.1822880181        0.4538243376
 H          4.7538628506        3.8634670552       -1.7864644550
 H          3.9994466845        2.6438399141       -3.7977589587
 H          2.3938286135        0.7731462072       -3.5804546235
 H          1.5490143844        0.1293578275       -1.3607024176
 H          1.3880350170        3.0348865396        2.4818646026
 H         -0.7483905538        4.0184168877        2.8850921738
 H         -3.1530866892        4.0224640739        2.3509292256
 H         -4.0544322589        2.5228118989        0.6275637680
 C         -2.5963909242        0.6749314369       -0.8946720810
 H         -2.1219433105        0.8961321549       -1.8618276755
 C         -4.0950677286        0.6085718533       -1.0837829901
 C         -4.7788064847        1.5868861287       -1.9904837919
 C         -4.6425046263        0.1526729707       -2.4020063358
 H         -5.5234969859       -0.4713414264       -2.4052002757
 H         -3.9312108429       -0.0932886297       -3.1768168906
 H         -5.7573915745        1.9487631192       -1.7137603766
 H         -4.1625454776        2.3184150154       -2.4906565229
 H         -4.6149301312        0.2876636162       -0.1884630952
 O         -0.6121163529       -0.7937666075       -2.3366967788
