  62
        -98.93711258
 C          1.0070030831        1.2321483854       -0.1932772901
 C          2.1129458189        1.4085789547        0.6892342156
 C          3.0209076950        0.2719912533        0.8603917426
 C          2.7707136914       -0.8788054443        0.2125112423
 C          3.5863722111       -2.1402544043        0.2905976997
 C          4.8058552636       -2.1559543929       -0.6415076714
 C          5.9607976102       -1.2456707122       -0.2220342936
 H          6.2215327007       -1.4457308953        0.8176594009
 H          6.8235171546       -1.5204486277       -0.8323476391
 C          5.6846222856        0.2531870608       -0.4060538001
 H          4.8328249748        0.3875477631       -1.0768933316
 H          6.5449651808        0.7265483832       -0.8848042011
 C          5.4144197611        1.0120081433        0.8932752245
 H          6.3105297835        0.9999391431        1.5178015860
 H          5.1928722237        2.0526252685        0.6428379333
 C          4.2397814690        0.4612780211        1.7121197696
 H          4.5206580658       -0.4786968510        2.1865179973
 H          3.9936272971        1.1879779034        2.4899673139
 H          4.4794152253       -1.8879097814       -1.6490475539
 H          5.1766161723       -3.1830374006       -0.6751136358
 H          3.9109258369       -2.3028262387        1.3186384269
 H          2.9223272830       -2.9554040544       -0.0021179617
 O          1.6973230283       -1.0257449321       -0.6015219471
 C          0.8014901264        0.0110124374       -0.8415053140
 O         -0.0987271898       -0.3206548968       -1.6360844033
 H         -1.6433799136        0.3347346577       -0.2400783154
 C         -1.9850274769        1.1824041052        0.3279129183
 C         -1.2182461566        2.3357964719        0.3838915116
 C         -1.7040614195        3.4245934798        1.1027737200
 C         -2.9264608446        3.3585097985        1.7448102796
 C         -3.6872018323        2.2045160518        1.6888483730
 C         -3.2094012960        1.1089657236        0.9787772856
 N         -3.9293332178       -0.0897800792        0.9570200981
 S         -3.7725818451       -1.2228840002       -0.2574797151
 O         -3.7389747276       -0.6119620710       -1.5648724688
 O         -4.8859069259       -2.1238144809       -0.0270731835
 C         -2.2684839831       -2.1035686160        0.1015693200
 C         -1.8092356253       -2.1721160286        1.4014114262
 C         -0.6748757698       -2.9204065340        1.6707205073
 C         -0.0301443074       -3.5929864951        0.6445370233
 C         -0.5039764484       -3.5138869881       -0.6546709591
 C         -1.6334841432       -2.7608025205       -0.9317579535
 H         -2.0207419770       -2.6551566095       -1.9323796359
 H          0.0064172460       -4.0240274001       -1.4560409225
 H          0.8493956458       -4.1796343673        0.8602752434
 H         -0.2954852121       -2.9741085786        2.6788812380
 H         -2.3293149561       -1.6352479563        2.1778194572
 H         -4.8564595527       -0.0631257965        1.3528869226
 H         -4.6393511975        2.1467071595        2.1935668012
 H         -3.2909805941        4.2112212556        2.2971283421
 H         -1.1095219797        4.3245716160        1.1615816851
 C          0.1129793901        2.4527204783       -0.3259195189
 H          0.6833920523        3.2240967889        0.2159231802
 C         -0.1290175976        3.0361133800       -1.7180235234
 C          0.5839275914        2.5799420034       -2.9522847977
 C         -0.8887897442        2.3411266328       -2.8050951008
 H         -1.5701756178        2.9283814817       -3.4040489645
 H         -1.2152848650        1.3286481208       -2.6312862701
 H          0.9277703892        3.3244325175       -3.6555429831
 H          1.2333585763        1.7211568420       -2.8697126420
 H         -0.3071166676        4.1063976177       -1.6545571601
 O          2.3332516449        2.4816130369        1.3133800447
