  62
        -98.93101566
 C         -2.4380177732       -0.8582644500        0.0632779734
 C         -2.8908718519        0.2663867083        0.7992128295
 C         -4.0723663555        0.9668217487        0.2770896520
 C         -4.6389171918        0.5272292132       -0.8610437190
 C         -5.8928872451        1.0748728735       -1.4812563853
 C         -7.1269978656        0.5596631520       -0.7134117571
 C         -7.9178956927        1.6481885154        0.0124769780
 H         -8.5024781858        2.2097306546       -0.7192827644
 H         -8.6211401985        1.1494094706        0.6828694838
 C         -7.0877227405        2.6521568270        0.8181055844
 H         -7.7808981031        3.1840854905        1.4732902085
 H         -6.6605485855        3.3981696013        0.1463726013
 C         -5.9601260081        2.0587189648        1.6726217137
 H         -6.1689190697        1.0165567385        1.9156399781
 H         -5.9273487060        2.6044325318        2.6178784917
 C         -4.5570279297        2.1646620094        1.0460653499
 H         -4.5075970945        3.0522559290        0.4092559971
 H         -3.8250182592        2.2952801318        1.8485464614
 H         -6.7933167871       -0.1907060228        0.0065197911
 H         -7.8005634066        0.0519790373       -1.4054746356
 H         -5.9195228911        0.7331281977       -2.5160880323
 H         -5.8627495025        2.1621138376       -1.4732799699
 O         -4.1667300159       -0.5409039427       -1.5508316660
 C         -3.0588838866       -1.2625728672       -1.1192432830
 O         -2.7575772155       -2.2066912258       -1.8702806480
 O         -2.3302041118        0.6606025988        1.8581457105
 C         -1.2360419047       -1.5944948629        0.6272130519
 C          0.0510048147       -1.0532762130        0.0590120740
 C          0.2482418785       -0.9431766715       -1.3139281828
 C          1.4435466025       -0.4574456055       -1.8119937678
 C          2.4609299571       -0.0682990832       -0.9578535254
 C          2.2740214993       -0.1711411480        0.4136493130
 C          1.0735052053       -0.6631306181        0.9111545605
 H          0.9271310518       -0.7308085197        1.9809726549
 N          3.2963058917        0.2369695070        1.2850049978
 S          4.8571531257       -0.3159778689        1.0108181328
 O          4.8511030584       -1.6041603177        0.3579101583
 O          5.5100983795       -0.2504548160        2.2997459693
 C          5.5675013678        0.9135052838       -0.0626458912
 C          6.1503933492        0.5316190029       -1.2550271093
 C          6.7116243737        1.5040677822       -2.0681370818
 C          6.6807790240        2.8334742853       -1.6758630242
 C          6.0928541784        3.2001634520       -0.4742439104
 C          5.5309682469        2.2330285006        0.3436369609
 H          5.0673280916        2.4766585644        1.2850677267
 H          6.0703584386        4.2351697978       -0.1731926731
 H          7.1175321231        3.5885255460       -2.3103042165
 H          7.1689467539        1.2211317113       -3.0026562345
 H          6.1463092736       -0.5133053488       -1.5218864065
 H          3.0537388802        0.1721113785        2.2629743822
 H          3.3926924218        0.3114970364       -1.3439520687
 H          1.5847635031       -0.3796438516       -2.8794093662
 H         -0.5425900716       -1.2482286208       -1.9826166031
 H         -1.2445515530       -1.3527881100        1.7022742802
 C         -1.3455307641       -3.1084515244        0.5088445843
 C         -0.4947979529       -3.9405053808       -0.3978712813
 C         -0.2708147140       -3.9848563114        1.0820629600
 H         -0.5586755889       -4.8710279629        1.6270912613
 H          0.6162805000       -3.5004193161        1.4634281016
 H         -0.9608214209       -4.7849894723       -0.8818393066
 H          0.2434562632       -3.4451183127       -1.0082457926
 H         -2.3677985447       -3.4476342920        0.6435500120
