  62
        -98.94626222
 C          2.3898965767        0.5230884281       -0.0119318707
 C          1.3964366639        0.7231506966        0.9739839296
 C          0.7096283867        2.0202273179        0.9497830251
 C          1.0496682739        2.9231805638        0.0124409894
 C          0.3474010055        4.2286623175       -0.2289955560
 C         -0.9597126112        3.9696770231       -1.0072457076
 C         -2.2346451074        4.3057578430       -0.2325868994
 H         -2.3609680447        5.3907068848       -0.2077511735
 H         -3.0716433934        3.8861439847       -0.7953939584
 C         -2.2948247255        3.7902389888        1.2085942239
 H         -1.7269591689        4.4571829553        1.8594819307
 H         -3.3374527167        3.8552060378        1.5267057475
 C         -1.8021080729        2.3531899310        1.4229897094
 H         -1.8693981368        1.7824860729        0.4956123881
 H         -2.4627104679        1.8673901373        2.1446534244
 C         -0.3666942416        2.2488779960        1.9739526625
 H         -0.1315471152        3.1401405503        2.5622138367
 H         -0.3098005277        1.3851029268        2.6424179282
 H         -0.9561619840        4.5536064930       -1.9295908996
 H         -0.9824550424        2.9179595135       -1.3043797444
 H          0.1396163492        4.7202179957        0.7189098353
 H          1.0181853151        4.8598494166       -0.8126227089
 O          2.0350293808        2.7096107533       -0.8982461115
 C          2.7056695533        1.4985987348       -0.9543048440
 O          3.5501779525        1.4156815814       -1.8711513565
 O          1.0856834846       -0.1526120691        1.8254551921
 C          3.0602620828       -0.8345317407       -0.1277879982
 C          1.9936760442       -1.8941003404       -0.2779467987
 C          2.0288295433       -3.1208714191        0.3727457281
 C          0.9909274943       -4.0247953141        0.2206614621
 C         -0.1105917745       -3.7172935043       -0.5571187784
 C         -0.1483160131       -2.4974628223       -1.2229510525
 C          0.9141679289       -1.6169629252       -1.1074501686
 H          0.8730434371       -0.6759759647       -1.6367488737
 N         -1.2524242021       -2.1216569298       -2.0158449298
 S         -2.1036031221       -0.7460601414       -1.5758098990
 O         -3.1763926390       -0.6490173446       -2.5428272055
 O         -1.2160052092        0.3852420391       -1.4984482022
 C         -2.7953324540       -1.1330191647        0.0229126158
 C         -1.9756880733       -1.1561286037        1.1334380331
 C         -2.5238437690       -1.5134551430        2.3561947059
 C         -3.8676476115       -1.8399143746        2.4488041961
 C         -4.6762078906       -1.8129263101        1.3222793826
 C         -4.1357784820       -1.4612013356        0.0963971883
 H         -4.7240575843       -1.4238129842       -0.8062562061
 H         -5.7218462210       -2.0654002855        1.3947385028
 H         -4.2858817398       -2.1155907846        3.4040777141
 H         -1.8866844102       -1.5311697557        3.2259623559
 H         -0.9335481736       -0.8907230447        1.0491188857
 H         -1.9091196809       -2.8724502257       -2.1806032803
 H         -0.9340401572       -4.4094448846       -0.6493169812
 H          1.0307124986       -4.9733813363        0.7339189497
 H          2.8650290968       -3.3655580819        1.0071780929
 H          3.6567986670       -0.8053942653       -1.0516519075
 C          3.9856488551       -1.0754933396        1.0469302966
 C          5.2140530473       -1.9181450001        0.8835456178
 C          5.3391389618       -0.4334089181        1.0418683707
 H          5.7282131581       -0.0417994838        1.9696484191
 H          5.6018638874        0.1564841663        0.1754592215
 H          5.5224761207       -2.5458067819        1.7059944178
 H          5.4064300508       -2.3395463941       -0.0916055572
 H          3.4547212465       -1.1169518016        1.9909265393
