  62
        -98.94468679
 C         -0.8221713334       -1.8714618483        0.2030490514
 C         -1.5982588164       -1.0843311818        1.0868252303
 C         -2.8734498508       -0.5871091615        0.5529038069
 C         -3.2024823494       -0.8602881108       -0.7231945654
 C         -4.4483625896       -0.3811377469       -1.4093915140
 C         -4.2235500044        0.9702903271       -2.1013400831
 C         -3.5727116966        2.0226584063       -1.2038304998
 H         -2.5531561786        1.7098840566       -0.9674421182
 H         -3.5013421100        2.9438781543       -1.7850870538
 C         -4.3326267269        2.2977042911        0.1010124541
 H         -4.3910048808        3.3769943453        0.2542417913
 H         -5.3559430270        1.9296148579        0.0194228250
 C         -3.6780654205        1.7031536580        1.3489842207
 H         -4.1611411961        2.1381038707        2.2279208699
 H         -2.6229128186        1.9822677718        1.3776112581
 C         -3.7674373447        0.1789750005        1.4876299170
 H         -4.8047339082       -0.1435569406        1.3737375710
 H         -3.4366021108       -0.0820499157        2.4972292272
 H         -5.1876916209        1.3376806850       -2.4577680176
 H         -3.5783574855        0.8114866235       -2.9683262358
 H         -4.7313130139       -1.1212028972       -2.1599099952
 H         -5.2493393458       -0.2975365572       -0.6772302442
 O         -2.4088774363       -1.5813321546       -1.5556125069
 C         -1.2119706090       -2.1242378629       -1.1122305468
 O         -0.6062124503       -2.7959017897       -1.9677857707
 O         -1.2477812951       -0.8208716326        2.2690116004
 C          0.4643441817       -2.4959013977        0.7130219943
 C          1.6303129603       -2.0867590125       -0.1508444318
 C          2.4312465252       -2.9949595477       -0.8304633758
 C          3.4797857147       -2.5532563664       -1.6175936636
 C          3.7680480694       -1.2056807083       -1.7185979009
 C          2.9817731532       -0.2877323476       -1.0310982385
 C          1.9150638917       -0.7303713405       -0.2660673744
 H          1.3019899085       -0.0116417086        0.2614692024
 N          3.2544360477        1.0874312809       -1.1099589839
 S          3.1821756366        2.0227474423        0.2763547378
 O          4.1042220523        3.1122083365        0.0269180394
 O          3.4350457250        1.2407316319        1.4633439448
 C          1.5373822004        2.6981675258        0.3012860988
 C          0.9980302500        3.1719493760       -0.8783589684
 C         -0.2390825564        3.7945926146       -0.8453655316
 C         -0.9058856917        3.9449248127        0.3610157235
 C         -0.3527548507        3.4598977565        1.5360002760
 C          0.8803165248        2.8276420764        1.5081281338
 H          1.3412547431        2.4285967618        2.3978572522
 H         -0.8731965238        3.5715136820        2.4740794524
 H         -1.8639754929        4.4391993270        0.3859809105
 H         -0.6770709655        4.1656790080       -1.7579115561
 H          1.5496334175        3.0469309918       -1.7952513925
 H          4.0648469813        1.3219612712       -1.6654238629
 H          4.5932765752       -0.8613747246       -2.3236119068
 H          4.0866109802       -3.2693624438       -2.1507319931
 H          2.2292405249       -4.0501488597       -0.7541404779
 H          0.6209508571       -2.0707291986        1.7155594801
 C          0.2931869197       -3.9955765535        0.8428847652
 C          1.1429004753       -4.7691495724        1.8049010149
 C         -0.3107060251       -4.5509910105        2.0962736485
 H         -0.9857617312       -5.3897896710        2.0151943585
 H         -0.5799636018       -3.8478289874        2.8708337551
 H          1.4660666605       -5.7609752191        1.5271539501
 H          1.8655918854       -4.2166511536        2.3863355412
 H          0.0170858175       -4.4678963268       -0.0934171758
