  62
        -98.93687663
 C          1.8850692387        0.0094675636       -0.4436376483
 C          2.7863370729       -0.7703413826        0.3170863253
 C          4.1138986876       -0.1789857842        0.5922086391
 C          4.3851988964        1.0590363013        0.1417872278
 C          5.6632744428        1.8437316680        0.2738875856
 C          6.7577424014        1.3593820051       -0.6910250044
 C          6.9042448079       -0.1570070818       -0.7868731274
 H          5.9507376218       -0.5896964148       -1.0949826652
 H          7.6278347981       -0.3709892257       -1.5779875927
 C          7.3875144355       -0.8456865966        0.4871744814
 H          7.5289833740       -1.9032379724        0.2500396821
 H          8.3603055467       -0.4360288416        0.7683526807
 C          6.4529746766       -0.7511299131        1.6950037495
 H          6.5201989314        0.2250089295        2.1676761067
 H          6.8035543354       -1.4776226666        2.4340136945
 C          4.9963916223       -1.0976493503        1.4033346758
 H          4.9538803569       -2.0730527205        0.9057267899
 H          4.4747785832       -1.2388112913        2.3575487006
 H          6.5169831565        1.7340337158       -1.6890088683
 H          7.7075475519        1.8014541816       -0.3854026259
 H          5.4198706222        2.8806224240        0.0313059831
 H          6.0129192293        1.8183296762        1.3016715482
 O          3.4783052392        1.7832626954       -0.5755112709
 C          2.2304307100        1.2882997112       -0.8888615874
 O          1.5253366067        2.0662462454       -1.5648126266
 H         -1.5819712365        1.2660982703       -0.6710693510
 C         -1.4858124421        0.6657401345        0.2215804045
 C         -0.4712707648       -0.2757482620        0.3221546066
 C         -0.3599299459       -1.0171356451        1.4947154144
 C         -1.2431070111       -0.8129712287        2.5382878820
 C         -2.2636757653        0.1156171288        2.4283149390
 C         -2.3838390998        0.8613725426        1.2625794377
 N         -3.4119126043        1.8136533620        1.1193534139
 S         -4.4364689349        1.6811311456       -0.1983535314
 O         -3.7205553991        1.9648140460       -1.4149951612
 O         -5.5520438116        2.5475205689        0.1105192159
 C         -4.9604985206       -0.0234353688       -0.1677209399
 C         -6.0839311602       -0.3613842772        0.5615492416
 C         -6.4472160384       -1.6951833273        0.6534684045
 C         -5.6769206055       -2.6647014890        0.0290274220
 C         -4.5506047686       -2.3095293942       -0.6970658087
 C         -4.1866363376       -0.9763243781       -0.7991304602
 H         -3.3198063739       -0.6622027650       -1.3567549217
 H         -3.9494827617       -3.0616517278       -1.1821665344
 H         -5.9559191884       -3.7036128021        0.1065741214
 H         -7.3249458811       -1.9745782991        1.2136768523
 H         -6.6554813526        0.4252663152        1.0271207423
 H         -3.9565933656        1.9505570211        1.9594887290
 H         -2.9565598581        0.2706619503        3.2416414111
 H         -1.1409621903       -1.3887166926        3.4455393399
 H          0.4401185228       -1.7349066700        1.5869565974
 C          0.4901120814       -0.4617628373       -0.8275051128
 H          0.1698489041        0.2077091733       -1.6379969594
 C          0.4660793317       -1.8857742623       -1.3474800734
 C         -0.6188019775       -2.2975711480       -2.2943299400
 C          0.7877633011       -2.1402629734       -2.7878649037
 H          1.3512726582       -3.0254609309       -3.0416147173
 H          1.0182875641       -1.2847291673       -3.4069249434
 H         -1.0238668340       -3.2941983217       -2.2116907265
 H         -1.3393116847       -1.5490232919       -2.5897329310
 H          0.8136810080       -2.6148063205       -0.6283537443
 O          2.5291219819       -1.9211244815        0.7590163918
