  62
        -98.93590344
 C         -1.3677635841       -1.5517631382        0.1818080074
 C         -2.3181397214       -0.9731091717        1.0581829490
 C         -3.2219493513        0.0468168077        0.4930317831
 C         -3.0614323978        0.4080357186       -0.7929324462
 C         -3.8886696124        1.3879140199       -1.5807577239
 C         -3.5637680144        2.8608114991       -1.2666454409
 C         -3.1881851943        3.1468655282        0.1861586440
 H         -2.3974547616        2.4605325688        0.4954391646
 H         -2.7771158402        4.1583197626        0.2362632519
 C         -4.3493930587        3.0729645919        1.1753718093
 H         -3.9478392018        3.2563724156        2.1752094156
 H         -5.0578238599        3.8740263333        0.9501088789
 C         -5.1209551191        1.7547804978        1.1976986103
 H         -5.6949312227        1.6351584564        0.2828238093
 H         -5.8460058123        1.8149799965        2.0150513086
 C         -4.2747181417        0.5135023206        1.4681114128
 H         -4.9502375173       -0.3383407201        1.6182337242
 H         -3.7528220195        0.6402062094        2.4234247415
 H         -4.4197906140        3.4749782496       -1.5499594089
 H         -2.7204020694        3.1543904153       -1.8943049524
 H         -3.6763033296        1.2013308988       -2.6356384494
 H         -4.9419478173        1.1744600475       -1.4165526468
 O         -2.0567643105       -0.0889138720       -1.5653872588
 C         -1.1931404814       -1.0787823825       -1.1190871862
 O         -0.3446890673       -1.4222521575       -1.9610708066
 O         -2.4196066193       -1.3024557715        2.2711822244
 C         -0.5106125711       -2.6811508832        0.7241835757
 C          0.9403898073       -2.4636949034        0.3827679328
 C          1.6348760931       -3.2484737600       -0.5281669085
 C          2.9614226320       -2.9804776357       -0.8172988083
 C          3.6261890877       -1.9374036228       -0.1991185786
 C          2.9400999084       -1.1449251359        0.7123606515
 C          1.6089804090       -1.4112792049        0.9970733463
 H          1.0734182269       -0.7880891601        1.7031672126
 N          3.6187381552       -0.0844485152        1.3520485395
 S          4.1399663930        1.1988186653        0.4147956530
 O          4.9122751143        0.6905418144       -0.6885821200
 O          4.8255022226        2.0893460806        1.3231408928
 C          2.6566117285        1.9927299788       -0.1802058032
 C          1.8768365332        1.3493930544       -1.1210978406
 C          0.7107327127        1.9620614885       -1.5528329642
 C          0.3500956378        3.1994731091       -1.0428498326
 C          1.1412497689        3.8303598674       -0.0951479575
 C          2.3035379437        3.2200820202        0.3459950835
 H          2.9506916042        3.6718213215        1.0804919633
 H          0.8543721104        4.7916820151        0.2996981648
 H         -0.5540425889        3.6758945878       -1.3865990603
 H          0.0887346463        1.4564227141       -2.2750568809
 H          2.1731547978        0.3861049965       -1.5054753067
 H          3.1270583696        0.2763596457        2.1579685235
 H          4.6549399477       -1.7094600536       -0.4245902906
 H          3.4864145185       -3.5937362041       -1.5340156250
 H          1.1284255333       -4.0546934594       -1.0325291644
 H         -0.6168826988       -2.6028782858        1.8189017515
 C         -1.0084694748       -4.0675670923        0.3403547672
 C         -2.4732719972       -4.3418268674        0.1819498120
 C         -1.5705465331       -4.3806269593       -1.0127173445
 H         -1.3433374779       -5.3415003102       -1.4510313697
 H         -1.6301569712       -3.5781912724       -1.7313330860
 H         -2.8662848004       -5.2723372419        0.5629906349
 H         -3.1519964556       -3.5073719826        0.2830814741
 H         -0.4226650099       -4.8490422830        0.8148365132
