  62
        -98.94306754
 C          1.7126672807        1.4895464476       -0.0840002224
 C          2.9939043216        1.1950719207        0.4570132115
 C          3.7065282246        0.0566103799       -0.1316551086
 C          3.1375011089       -0.6402772176       -1.1309721728
 C          3.7258141685       -1.8358159067       -1.8291748193
 C          3.4808495247       -3.1616759282       -1.0954361377
 C          4.3031855223       -3.3602006401        0.1783947978
 H          4.1998540376       -4.4082847374        0.4662276757
 H          5.3573811299       -3.1862147435       -0.0398573520
 C          3.8673283507       -2.4799049154        1.3583393392
 H          2.8632170131       -2.0908385203        1.1737303697
 H          3.8123864249       -3.0874663525        2.2643660562
 C          4.8040988016       -1.3090739844        1.6572158582
 H          4.3818485856       -0.7363406608        2.4868812347
 H          5.7781638094       -1.6893964291        1.9730164707
 C          5.0139546595       -0.3486383967        0.4787782488
 H          5.6581498898       -0.8073911976       -0.2711673322
 H          5.5023040728        0.5537523513        0.8548567850
 H          2.4178148404       -3.2383956508       -0.8559665368
 H          3.7251198884       -3.9687407070       -1.7899437531
 H          4.7967121445       -1.6891058823       -1.9716900213
 H          3.2498067367       -1.8906969299       -2.8107756930
 O          1.9239724858       -0.3139546983       -1.6422616894
 C          1.1711450896        0.7367175317       -1.1282653931
 O          0.0761467006        0.8758738649       -1.7029911342
 O          3.5149541754        1.8523535395        1.3960705287
 C          0.9098933575        2.5788137177        0.6106894665
 C         -0.3822132443        1.9637150683        1.0819025343
 C         -0.4146014425        1.2583162787        2.2812652427
 C         -1.5613506223        0.5975177570        2.6812727222
 C         -2.6849349607        0.5929244114        1.8730648469
 C         -2.6516237721        1.2749645532        0.6637541634
 C         -1.5203113081        1.9884269364        0.2914356409
 H         -1.5071290206        2.5196024300       -0.6471244570
 N         -3.7596330675        1.2069887034       -0.1989983704
 S         -4.4760881124       -0.2941945044       -0.3906880565
 O         -5.0010031137       -0.3002396230       -1.7390495385
 O         -5.4558230155       -0.4856339508        0.6525910801
 C         -3.1907197151       -1.5250295148       -0.2165386607
 C         -2.0224821044       -1.3941235619       -0.9395302789
 C         -1.0389840677       -2.3607763997       -0.8003090388
 C         -1.2386118425       -3.4401044737        0.0454348483
 C         -2.4222097492       -3.5618617602        0.7573217589
 C         -3.4069674811       -2.5963050287        0.6279409038
 H         -4.3371568820       -2.6465257487        1.1706273677
 H         -2.5773810684       -4.4022430872        1.4146464455
 H         -0.4684309334       -4.1883790410        0.1508665703
 H         -0.1184148534       -2.2476128038       -1.3521975777
 H         -1.8585702543       -0.5426561637       -1.5807743795
 H         -3.5898376387        1.6364472605       -1.0972462115
 H         -3.5817954981        0.0656228846        2.1560965412
 H         -1.5776118333        0.0663302299        3.6205545440
 H          0.4760716907        1.2256748207        2.8931239112
 H          1.5128084332        2.8338102160        1.4965007091
 C          0.7148523532        3.8735652098       -0.1614518446
 C          1.8700896379        4.4954430927       -0.8873320145
 C          0.6968876679        3.9699791437       -1.6559295734
 H          0.0213925152        4.6828867710       -2.1069368507
 H          0.8180990596        3.0660787102       -2.2302344677
 H          2.0115395275        5.5636715406       -0.8223226545
 H          2.7913204126        3.9317550195       -0.9197494975
 H          0.0567329448        4.5546101297        0.3705680008
