  62
        -98.93887651
 C          2.5480931423        1.1880119560        0.3263593020
 C          2.6289973531        0.4599749309       -0.8834064005
 C          3.3586978988       -0.8213240160       -0.8282454095
 C          3.8709322887       -1.2330732575        0.3442213162
 C          4.5923733909       -2.5210088631        0.6315882749
 C          3.6107119458       -3.5954683904        1.1297105122
 C          2.9403932449       -4.4175967192        0.0296183764
 H          3.6796450882       -5.0823322347       -0.4222391257
 H          2.1833070743       -5.0441639017        0.5070880821
 C          2.2716159877       -3.6044989900       -1.0819996027
 H          1.5423549845       -4.2495007320       -1.5766702884
 H          1.7121051272       -2.7722111321       -0.6487280882
 C          3.2666244845       -3.0814680370       -2.1288559111
 H          2.9162456701       -3.3544419221       -3.1263726458
 H          4.2254357375       -3.5805799035       -1.9897405535
 C          3.4695996016       -1.5600413950       -2.1340067475
 H          4.4426783950       -1.3316863016       -2.5817628682
 H          2.7132885133       -1.0968287115       -2.7758670241
 H          4.1472788895       -4.2838663562        1.7857682047
 H          2.8460449260       -3.0987838358        1.7331556534
 H          5.1378371074       -2.8616294912       -0.2431777621
 H          5.3054144367       -2.3055221445        1.4300852764
 O          3.7400892489       -0.5142412881        1.4944832727
 C          3.0746127172        0.6970330084        1.5196987334
 O          3.0128088709        1.2291659436        2.6477394872
 H          0.2037033182        0.8023179129        1.5861034929
 C         -0.3245642046        1.3147504632        0.7899872631
 C          0.3528883578        2.2697371084        0.0406117880
 C         -0.3320175670        2.9208133886       -0.9754630668
 C         -1.6542838891        2.6054862168       -1.2403413889
 C         -2.3211117691        1.6487287249       -0.4977912701
 C         -1.6472222402        0.9978813176        0.5280217571
 N         -2.3207866312        0.0292785949        1.2984669522
 S         -2.9947771101       -1.2681071743        0.4656669968
 O         -3.0604133275       -2.3437797843        1.4317682752
 O         -2.2769563825       -1.5448907744       -0.7570397910
 C         -4.6466659167       -0.7158232628        0.0986142312
 C         -5.0905975873       -0.6914434406       -1.2088221982
 C         -6.3823693408       -0.2604762436       -1.4691396008
 C         -7.2017259583        0.1358047852       -0.4232218924
 C         -6.7408712265        0.1032132099        0.8847206676
 C         -5.4514154250       -0.3278946584        1.1520636366
 H         -5.0546990832       -0.3720047019        2.1525894945
 H         -7.3809027593        0.4124703977        1.6952237572
 H         -8.2055347494        0.4724803931       -0.6287683176
 H         -6.7422277084       -0.2344413961       -2.4851420155
 H         -4.4143952054       -1.0020938694       -1.9893469607
 H         -1.7702938198       -0.3127990943        2.0736933307
 H         -3.3485852745        1.3980263598       -0.7054229614
 H         -2.1723724511        3.1122457298       -2.0401054042
 H          0.1725799603        3.6637429176       -1.5704443283
 C          1.8056433612        2.5131086957        0.3727168273
 H          1.8620417971        2.8541215540        1.4167700906
 C          2.4776501325        3.5390999103       -0.5134711072
 C          2.3116028524        5.0000185444       -0.2251861482
 C          3.6255907988        4.3290440700        0.0365758104
 H          4.4583243450        4.5490373009       -0.6143316539
 H          3.9117027163        4.1414072529        1.0615444691
 H          1.7059231291        5.2754651240        0.6247981834
 H          2.2444554576        5.6854497362       -1.0562866867
 H          2.5396802990        3.2221734111       -1.5476694052
 O          2.1160005190        0.8546021964       -1.9627498093
