  62
        -98.93755108
 C          2.3212934701        0.6765763343        0.0707012633
 C          3.3483242917        0.3823482677        0.9996076956
 C          4.3052913211       -0.6713562339        0.6215705375
 C          4.1566655750       -1.3038758860       -0.5574321838
 C          4.9379685626       -2.4392565345       -1.1853598301
 C          6.3026778621       -2.8467121495       -0.6362390784
 C          7.4058412122       -1.8066972110       -0.8289450466
 H          8.3021574410       -2.1602382863       -0.3146870844
 H          7.6384542090       -1.7404736143       -1.8948130651
 C          7.0767239594       -0.3978380043       -0.3416245403
 H          7.9437623124        0.2368786674       -0.5441554900
 H          6.2424449868        0.0049992165       -0.9195986175
 C          6.7523152323       -0.2795385445        1.1462362203
 H          6.6972175137        0.7855866243        1.3868174172
 H          7.5629479908       -0.7132600285        1.7349101910
 C          5.4263336773       -0.9224378467        1.5886706009
 H          5.1254001407       -0.4594997454        2.5329394991
 H          5.5444876871       -1.9877777179        1.7714303187
 H          6.6002316674       -3.7471114210       -1.1806310904
 H          6.2199924172       -3.1253255476        0.4100847427
 H          4.2751989021       -3.3108573314       -1.1470126228
 H          5.0415022315       -2.1787889002       -2.2435277085
 O          3.1378160533       -0.9981328913       -1.4127249678
 C          2.2051684692       -0.0121037338       -1.1349710197
 O          1.3545923646        0.1449333781       -2.0316120090
 O          3.4608740290        0.9738850453        2.1064402839
 C          1.3131857826        1.7546895962        0.4319841089
 C         -0.0227689613        1.1000398211        0.6821126304
 C         -0.2628791261        0.5018482583        1.9163372259
 C         -1.4608243435       -0.1387759505        2.1697440431
 C         -2.4417880279       -0.2058521275        1.1953263472
 C         -2.2107405766        0.3830836882       -0.0399730754
 C         -1.0119486834        1.0403403895       -0.2868800490
 H         -0.8416015307        1.4830171803       -1.2557166848
 N         -3.1910548635        0.2949943144       -1.0426653698
 S         -4.7648631199        0.7361180249       -0.6707091424
 O         -5.3650941672        1.1082149135       -1.9333812829
 O         -4.8020891433        1.7321035022        0.3753276835
 C         -5.5124205279       -0.7753426329       -0.0985784341
 C         -5.4744387259       -1.8766628142       -0.9311553580
 C         -6.0603609758       -3.0579240957       -0.5051781819
 C         -6.6735189630       -3.1169570653        0.7376296938
 C         -6.7062774157       -2.0015434811        1.5604083627
 C         -6.1210204941       -0.8170642121        1.1405332105
 H         -6.1173312473        0.0738190002        1.7482316011
 H         -7.1835498604       -2.0494842879        2.5260247902
 H         -7.1285168850       -4.0379562455        1.0664139113
 H         -6.0365444322       -3.9274774647       -1.1422339808
 H         -4.9906825649       -1.7889047602       -1.8898452752
 H         -2.9008715201        0.6828992549       -1.9283560907
 H         -3.3764934533       -0.7086845124        1.3828478307
 H         -1.6330738258       -0.5943207972        3.1330430733
 H          0.5086800221        0.5418188966        2.6726342919
 H          1.6672030841        2.1742611629        1.3834422568
 C          1.2694774384        2.8619921373       -0.6000001718
 C          0.5962972378        4.1564524438       -0.2573988211
 C          2.0883060714        4.0976669173       -0.3839588974
 H          2.5524770784        4.5639486319       -1.2401085062
 H          2.6801719205        4.1537515708        0.5177843449
 H          0.0332557707        4.6656027895       -1.0249527559
 H          0.1724683985        4.2500524435        0.7311695415
 H          1.1840518053        2.4997387783       -1.6174157405
