  62
        -98.93751698
 C         -1.0711997274       -1.9158223532       -0.5276973491
 C         -1.2776308765       -0.6608587293       -1.1496677822
 C         -2.5903030903       -0.0129050211       -0.9234531304
 C         -3.5352356678       -0.6692081173       -0.2280140806
 C         -4.9297155073       -0.2253810792        0.1318293201
 C         -4.9560286135        0.7962207385        1.2757959440
 C         -3.9849491569        1.9614565288        1.1101477250
 H         -4.0744102653        2.5965077576        1.9960579558
 H         -2.9595590863        1.5863931119        1.0933847717
 C         -4.2274571162        2.8367607576       -0.1180644915
 H         -5.2604410920        3.1919371086       -0.1091554592
 H         -3.5745769485        3.7078249599       -0.0183419048
 C         -3.9367865425        2.1874753470       -1.4753952856
 H         -3.8271026588        2.9956077229       -2.2043932661
 H         -4.7696813479        1.5768215409       -1.8153646578
 C         -2.6473253832        1.3747187949       -1.5142149639
 H         -2.3270365769        1.2625769482       -2.5564996870
 H         -1.8502565968        1.9444719631       -1.0196491053
 H         -5.9740621142        1.1800612207        1.3687485279
 H         -4.7041477991        0.2775740562        2.2042829351
 H         -5.4391677759        0.1690808844       -0.7423195238
 H         -5.4650692432       -1.1216981740        0.4541181716
 O         -3.3161710295       -1.9153052948        0.2868611979
 C         -2.0875404682       -2.5368638849        0.1992096067
 O         -2.0272043544       -3.6398579312        0.7826805961
 H          0.5914354533       -0.1235380344        0.3844329925
 C          1.1736847670       -0.8364895074        0.9434850676
 C          1.1217762863       -2.1820081299        0.6102433063
 C          1.8698107778       -3.0830926621        1.3597241563
 C          2.6514441761       -2.6408352747        2.4127110294
 C          2.6983843817       -1.2983860035        2.7431009814
 C          1.9426308868       -0.3905215615        2.0081495869
 N          1.9325715037        0.9669264488        2.3370319212
 S          1.4285084343        2.1525485053        1.2829288803
 O          1.9080346399        3.3763821528        1.8945149905
 O          0.0035478121        2.0802729460        1.0789632505
 C          2.3155526589        1.8868760343       -0.2406025223
 C          1.6769438737        2.1132113320       -1.4413350747
 C          2.3880418676        1.9528915125       -2.6198105321
 C          3.7193743207        1.5725802166       -2.5773742027
 C          4.3493957888        1.3529303675       -1.3618114856
 C          3.6444455880        1.5143994935       -0.1806018634
 H          4.1115934230        1.3521930145        0.7771890040
 H          5.3845863276        1.0533423157       -1.3311522499
 H          4.2691587265        1.4439709850       -3.4964593433
 H          1.8922738316        2.1173656655       -3.5627249539
 H          0.6346355548        2.3855056568       -1.4394106067
 H          2.6051790338        1.2803472681        3.0185334092
 H          3.2988286942       -0.9554395193        3.5714073058
 H          3.2276023800       -3.3499561974        2.9872772833
 H          1.8197406840       -4.1363167082        1.1258534821
 C          0.2611733993       -2.6461045957       -0.5392173771
 H          0.0156857810       -3.7053897202       -0.3604282092
 C          0.9827944943       -2.5651656084       -1.8775821255
 C          2.1826851810       -1.7028595049       -2.1102583632
 C          2.3356030657       -3.1910811567       -2.0491254907
 H          2.5401434407       -3.7294417334       -2.9620282637
 H          2.8082095311       -3.6084277258       -1.1733725965
 H          2.2625551032       -1.2039760950       -3.0632475570
 H          2.5502765016       -1.1127370135       -1.2853285123
 H          0.2925883276       -2.6628650741       -2.7090436482
 O         -0.4238099380       -0.0781841026       -1.8644274637
