  62
        -98.93439902
 C         -2.4334025595       -1.0742033398        0.1708961589
 C         -2.7358131894        0.0033595508       -0.6924815304
 C         -4.1599067594        0.3693158709       -0.8102165902
 C         -5.0819781394       -0.3259247295       -0.1180706807
 C         -6.5922603294       -0.2155480695       -0.0781054107
 C         -7.3019062294        1.0123748309       -0.6425512499
 C         -7.0549247993        2.3060948704        0.1327734210
 H         -7.5206633793        3.1276079108       -0.4157785685
 H         -7.5523876494        2.2295030498        1.1028824309
 C         -5.5903792093        2.6495311802        0.3933178212
 H         -5.5618078993        3.5849095898        0.9587723718
 H         -5.1393479594        1.8800933198        1.0232171007
 C         -4.7292296793        2.8355163710       -0.8544193787
 H         -5.1864767893        3.5799277514       -1.5091101982
 H         -3.7598940993        3.2239988707       -0.5303021384
 C         -4.4630258793        1.5602885715       -1.6729609195
 H         -5.2851798193        1.3459018920       -2.3514551496
 H         -3.5702225993        1.7304959019       -2.2818171793
 H         -8.3734980194        0.7999841809       -0.5964572800
 H         -7.0522605294        1.1425085916       -1.6913271198
 H         -6.9669503995       -1.1025911291       -0.6007721312
 H         -6.8712210895       -0.3383350701        0.9732226593
 O         -4.7383689295       -1.3703921200        0.6933251586
 C         -3.4239884395       -1.7618263502        0.8678847584
 O         -3.2700313196       -2.7144550407        1.6593435278
 H          1.5379262806       -0.8120988995       -0.4822885109
 C          1.1450757806       -0.1680972200        0.2863946895
 C         -0.1238515995       -0.3742233703        0.8034002194
 C         -0.5825240694        0.4838088891        1.7999069599
 C          0.2034013006        1.5253995588        2.2526946706
 C          1.4745113706        1.7208335991        1.7413333007
 C          1.9448329406        0.8668937697        0.7518887402
 N          3.2248279206        1.0399271400        0.2003102903
 S          4.1051450306       -0.3422654498       -0.2099074205
 O          3.7331852806       -0.7591617189       -1.5382702008
 O          3.9785105105       -1.3358531704        0.8322621988
 C          5.7617307506        0.3194739502       -0.2310750701
 C          6.5552656906        0.1896176194        0.8932060398
 C          7.8322296306        0.7282702194        0.8786925502
 C          8.2907444206        1.3864703201       -0.2525197094
 C          7.4831635807        1.5081990609       -1.3736237093
 C          6.2056742206        0.9711184109       -1.3662424797
 H          5.5461458506        1.0329619215       -2.2161969596
 H          7.8444115507        2.0174588014       -2.2524276490
 H          9.2853372806        1.8035380301       -0.2620271091
 H          8.4637035906        0.6317749588        1.7471756402
 H          6.1604077905       -0.3390705211        1.7458547495
 H          3.7879167106        1.7045038897        0.7130898208
 H          2.0917784206        2.5302471588        2.1005830013
 H         -0.1720687394        2.1859333483        3.0200057510
 H         -1.5700609595        0.3237247789        2.2121020298
 C         -0.9960749995       -1.5211220799        0.3526927486
 H         -1.0083491095       -2.2704254205        1.1592992281
 C         -0.4980881695       -2.1856845791       -0.9145861118
 C          0.5503525005       -3.2539393192       -0.8486214325
 C         -0.8653725195       -3.6126973090       -1.1838236827
 H         -1.0984189095       -3.9036177183       -2.1969902229
 H         -1.4557956796       -4.1205399294       -0.4348687631
 H          1.2960062005       -3.2917578187       -1.6292655425
 H          0.9295344204       -3.5231033299        0.1262030873
 H         -0.4776711795       -1.5052170986       -1.7590074114
 O         -1.8609264194        0.6325169312       -1.3433202200
