  62
        -98.93419011
 C         -2.5155502882       -0.3172553629        0.5742785479
 C         -2.2003403450        0.3187154901       -0.6493471473
 C         -1.9745692122        1.7786579163       -0.6076343561
 C         -2.0621717962        2.4194648435        0.5713212358
 C         -1.8623817388        3.8829714153        0.8689425930
 C         -0.3841348118        4.2952328348        0.8798835291
 C          0.4286448036        3.7941316061       -0.3103627947
 H          1.4633993991        4.1139529303       -0.1578013231
 H          0.4336517195        2.7022027557       -0.3090918349
 C         -0.0253488944        4.3160908978       -1.6722345279
 H          0.7202370414        3.9928113699       -2.4027179920
 H         -0.0228004029        5.4084419282       -1.6551433272
 C         -1.3961672725        3.8369318174       -2.1589767144
 H         -1.4439474708        4.0290560961       -3.2347794116
 H         -2.2024957089        4.4097676430       -1.7079980427
 C         -1.6485285856        2.3453384332       -1.9677394447
 H         -2.4786420261        2.0417661766       -2.6168926576
 H         -0.7799539820        1.7810358973       -2.3269249052
 H         -0.3337923558        5.3851467530        0.9277101083
 H          0.0744947401        3.8935115226        1.7873619651
 H         -2.4239819202        4.4896176314        0.1645619856
 H         -2.2784975246        4.0560884153        1.8644102957
 O         -2.3481829311        1.7604112511        1.7333692306
 C         -2.5424051811        0.3950061563        1.7727958397
 O         -2.7361994443       -0.0643884395        2.9191703413
 O         -2.1099899829       -0.2896739334       -1.7477596829
 C         -2.6746852018       -1.8254850146        0.6719631417
 C         -1.5461177905       -2.4913102680       -0.0792512921
 C         -1.7067982841       -3.5449485084       -0.9672644941
 C         -0.6059974589       -4.0897209443       -1.6088658364
 C          0.6632327113       -3.5852192549       -1.4014444949
 C          0.8321672972       -2.5197138171       -0.5210003918
 C         -0.2616160970       -2.0139070363        0.1561375977
 H         -0.1199216769       -1.2067633043        0.8616435809
 N          2.0971499378       -1.9298060442       -0.3526344551
 S          2.3241468921       -0.5989626629        0.6384444343
 O          2.1789876431       -0.9580921891        2.0353649958
 O          1.5026876810        0.4831536313        0.1612117583
 C          4.0393716787       -0.2625580116        0.2876043934
 C          5.0173869872       -0.8057438041        1.0990804658
 C          6.3489987756       -0.5648108331        0.7991974620
 C          6.6786991999        0.2100091328       -0.3025925354
 C          5.6863972146        0.7510639818       -1.1065456298
 C          4.3532946159        0.5134153285       -0.8117100808
 H          3.5467698091        0.9174774174       -1.4015289448
 H          5.9458044161        1.3562522971       -1.9601760332
 H          7.7154024072        0.3964577363       -0.5342082743
 H          7.1221915623       -0.9808851035        1.4247304580
 H          4.7134766468       -1.3910451219        1.9520710050
 H          2.8753653788       -2.5715168646       -0.3619535565
 H          1.5148810345       -3.9943208508       -1.9218731072
 H         -0.7439343641       -4.9121119762       -2.2945070885
 H         -2.6918978804       -3.9302497625       -1.1732041845
 H         -2.5356264215       -2.0506183441        1.7439417952
 C         -4.0531486598       -2.3477511802        0.2949907651
 C         -5.2531841000       -1.4495828469        0.3134651383
 C         -4.7247894838       -1.9671193969       -0.9888232472
 H         -5.2985840986       -2.7199155412       -1.5093463320
 H         -4.1972094239       -1.2870544700       -1.6381045180
 H         -6.1837398924       -1.8473721605        0.6901462697
 H         -5.0937575065       -0.4081068584        0.5541225291
 H         -4.2133160373       -3.3619711118        0.6479573094
