  62
        -98.94173319
 C         -0.9370372307       -1.3952886491        0.5460856504
 C         -1.4122341498       -0.8408670498       -0.6691445703
 C         -2.4120227798        0.2350079704       -0.5309328116
 C         -2.8231843905        0.6123910413        0.6920680179
 C         -3.8969954306        1.6257412516        0.9654568866
 C         -5.2786866407        0.9603925618        1.0433279862
 C         -5.5846480401        0.0239242911       -0.1254200134
 H         -4.9056035802       -0.8308792690       -0.0861830525
 H         -6.5953783502       -0.3620518087        0.0233103862
 C         -5.4878485591        0.6818458402       -1.5089732438
 H         -6.3538537788        0.3812908999       -2.1024507841
 H         -5.5259294591        1.7671117002       -1.4077183245
 C         -4.2435276587        0.2924271295       -2.3093846228
 H         -4.3750868080        0.6412139888       -3.3372767031
 H         -4.1535952988       -0.7963161205       -2.3436804920
 C         -2.9173350289        0.8678717297       -1.7971369123
 H         -3.0088831289        1.9500883998       -1.6770691231
 H         -2.1535301685        0.6732450791       -2.5573310017
 H         -6.0364467906        1.7445156019        1.0902959652
 H         -5.3311127413        0.3805778024        1.9676309165
 H         -3.6871183711        2.1054282522        1.9231988064
 H         -3.8892049600        2.3801099711        0.1806258861
 O         -2.3339751713        0.0667998819        1.8347319886
 C         -1.3798801314       -0.9344207082        1.7890147298
 O         -1.0142824221       -1.3406490575        2.9097899703
 O         -1.0493005692       -1.2110816506       -1.8137908798
 C          0.0784519692       -2.5237109291        0.6112796517
 C          1.4909199992       -1.9989836793        0.6532286823
 C          2.3940082086       -2.4978580288        1.5857457032
 C          3.7006242186       -2.0458095189        1.6144994937
 C          4.1276128293       -1.0826292995        0.7189844133
 C          3.2316506399       -0.5715422500       -0.2135273675
 C          1.9205425199       -1.0274120699       -0.2410402781
 H          1.2409519604       -0.6328435003       -0.9805352088
 N          3.6485932106        0.3979981393       -1.1382868679
 S          2.6392009010        1.6736270892       -1.5168886394
 O          1.6309014715        1.2669737187       -2.4590799097
 O          3.5423440514        2.7111274088       -1.9706597295
 C          1.9015119301        2.1643299503        0.0309179499
 C          2.7392580695        2.5812826308        1.0471930601
 C          2.1859079588        2.9737277717        2.2542734695
 C          0.8094642987        2.9512529120        2.4210552587
 C         -0.0173476207        2.5384708914        1.3887755784
 C          0.5316143500        2.1335426105        0.1822928390
 H         -0.0804242795        1.7910568801       -0.6379141411
 H         -1.0874558808        2.5218332616        1.5180651778
 H          0.3753023381        3.2572946426        3.3597262982
 H          2.8251994783        3.2974075921        3.0596136397
 H          3.8032392196        2.6059009206        0.8771623708
 H          4.6029280806        0.7069139993       -1.0228379475
 H          5.1469689393       -0.7287811496        0.7355502137
 H          4.3913933081       -2.4426438085        2.3423946144
 H          2.0602178280       -3.2391542783        2.2966895734
 H         -0.1100238015       -3.0217214285        1.5763641819
 C         -0.1209963603       -3.5731326998       -0.4749098077
 C          0.7792256305       -3.7248144907       -1.6598028570
 C          0.8079909797       -4.7478246200       -0.5666088864
 H          0.3893301997       -5.7240518201       -0.7589281660
 H          1.6679715892       -4.7545357897        0.0858630642
 H          0.3215632110       -3.9780135512       -2.6040775372
 H          1.6150383006       -3.0495784408       -1.7568687770
 H         -1.1738369202       -3.7734766298       -0.6480394082
