  62
        -98.94620018
 C          1.7304016995        1.3301386503       -0.0773495178
 C          2.7961512493        0.7665593600        0.6609972822
 C          3.3451886796       -0.4916137196        0.1362841216
 C          2.8137904501       -1.0269721090       -0.9784133689
 C          3.2177538805       -2.3465616986       -1.5697130096
 C          2.3743065805       -3.4960474191       -0.9983838006
 C          2.2655505599       -3.4850967900        0.5262322593
 H          1.7228221296       -2.5896558603        0.8399019297
 H          1.6582499099       -4.3454403603        0.8171909086
 C          3.6147143096       -3.5397523503        1.2568723498
 H          4.3907024099       -3.8879877798        0.5742640999
 H          3.5456567694       -4.2680243508        2.0677384193
 C          4.0509514392       -2.2140568707        1.8830841008
 H          3.2438730289       -1.8187029312        2.5057314208
 H          4.9014235190       -2.4122598010        2.5408134610
 C          4.4791629094       -1.1208258800        0.8958668217
 H          4.9368515391       -0.3135117703        1.4752534524
 H          5.2294017197       -1.5189379995        0.2098524017
 H          1.3648540806       -3.4314648589       -1.4105633210
 H          2.8116626607       -4.4412873888       -1.3245264311
 H          4.2720707505       -2.5227101386       -1.3654408893
 H          3.0707046909       -2.3006817979       -2.6499376596
 O          1.8015944503       -0.4462835487       -1.6709032389
 C          1.2284395300        0.7427374310       -1.2400134984
 O          0.3051947902        1.1606661013       -1.9591670985
 O          3.2566581988        1.2808460993        1.7169100127
 C          1.0610428391        2.5944458799        0.4303506127
 C         -0.4119070709        2.3326850296        0.6301687920
 C         -1.4118695608        3.1962441097        0.2043741321
 C         -2.7457615309        2.8675794794        0.3801231214
 C         -3.1119328309        1.6767334290        0.9789468605
 C         -2.1185865510        0.8113274189        1.4192957804
 C         -0.7856646910        1.1480923491        1.2536231511
 H         -0.0159983810        0.4671324990        1.5971431710
 N         -2.4771431611       -0.4174310916        2.0106668894
 S         -3.4711045306       -1.4091789111        1.0919390384
 O         -4.8314695507       -0.9474111613        1.2093680582
 O         -3.2141584506       -2.7495677814        1.5704341977
 C         -2.9077017100       -1.2226858300       -0.5886919912
 C         -1.7019920698       -1.7950325796       -0.9427156511
 C         -1.2346360493       -1.6256310987       -2.2346420908
 C         -1.9696333290       -0.8796590782       -3.1419921206
 C         -3.1759218493       -0.3092418786       -2.7704011308
 C         -3.6529150997       -0.4805567195       -1.4811289210
 H         -4.5877154199       -0.0568890098       -1.1525492911
 H         -3.7417144691        0.2745346218       -3.4784633606
 H         -1.5911122587       -0.7371576076       -4.1414955604
 H         -0.2893512191       -2.0534456084       -2.5280821707
 H         -1.1541158600       -2.3682636800       -0.2101252013
 H         -1.6816418511       -0.9453090817        2.3404942094
 H         -4.1449114510        1.3971989688        1.1086780900
 H         -3.5116850308        3.5462321596        0.0373799916
 H         -1.1480440408        4.1233125401       -0.2771357872
 H          1.5159347887        2.7981365793        1.4113340930
 C          1.3506010294        3.7602381705       -0.4911857764
 C          1.4015291590        5.1573925102        0.0490732145
 C          2.6652379692        4.4682640606       -0.3670789055
 H          3.1623345295        4.7964613112       -1.2675222451
 H          3.3408687590        4.1255357802        0.4031391046
 H          1.0326259091        5.9628348505       -0.5678624752
 H          1.2231337986        5.2931691595        1.1050942345
 H          0.9551374898        3.6084094011       -1.4891344667
