  62
        -98.93293996
 C          2.4011508403        1.0400505603        0.3251416903
 C          2.6308423403       -0.2116249099        0.9497177799
 C          3.9405079303       -0.8559738797        0.7335640099
 C          4.8498521604       -0.2235473095       -0.0308707897
 C          6.2350411105       -0.6745917293       -0.4129465097
 C          6.2288230507       -1.7659910989       -1.4940276600
 C          5.2158292608       -2.8845734091       -1.2672199405
 H          4.2129367307       -2.4562253991       -1.2178787905
 H          5.2449135809       -3.5409662388       -2.1409340406
 C          5.4623889206       -3.7436987594       -0.0292239207
 H          6.4609356707       -4.1820308593       -0.0897541307
 H          4.7383051107       -4.5620707095       -0.0546899910
 C          5.3229103804       -3.0328867098        1.3192722795
 H          6.2063360103       -2.4431262398        1.5488060198
 H          5.2581809703       -3.8068857401        2.0895872393
 C          4.0702794203       -2.1734236199        1.4594157596
 H          3.1917015304       -2.7651731699        1.1766140693
 H          3.9246191601       -1.9377194103        2.5206716096
 H          7.2326329308       -2.1886477989       -1.5624267600
 H          5.9947599108       -1.2933295187       -2.4509693499
 H          6.7761151004       -1.0067923095        0.4679768503
 H          6.7498519105        0.2037208409       -0.8085266193
 O          4.5859003004        0.9765124207       -0.6174237294
 C          3.3805351504        1.6375837606       -0.4683511994
 O          3.3313123704        2.7194871308       -1.0863100691
 O          1.7707390402       -0.7788961001        1.6795073596
 C          1.0621478202        1.7014161401        0.5952197903
 C          0.0610206304        1.5056787504       -0.5190829699
 C          0.3505384006        1.8542054408       -1.8336742798
 C         -0.6023226393        1.6939222110       -2.8231905500
 C         -1.8575910393        1.1967742609       -2.5223554703
 C         -2.1636556495        0.8607456405       -1.2079328505
 C         -1.2004964796        1.0099760903       -0.2199404503
 H         -1.4398916998        0.7236224299        0.7928916796
 N         -3.4561722295        0.4211019803       -0.8767945308
 S         -3.7138610396       -0.6345699601        0.4113652389
 O         -3.5136709498        0.0783208896        1.6476519591
 O         -2.9450976395       -1.8463741900        0.2309199686
 C         -5.4524078296       -0.9599140601        0.1870325285
 C         -6.3539438397        0.0162755297        0.5682234987
 C         -7.7074480196       -0.2103424303        0.3775143484
 C         -8.1353391895       -1.4031109702       -0.1869288020
 C         -7.2193512594       -2.3742475200       -0.5618552622
 C         -5.8634243494       -2.1528853200       -0.3759592419
 H         -5.1158134293       -2.8816120198       -0.6453645720
 H         -7.5551874793       -3.3016656399       -0.9970626025
 H         -9.1895889795       -1.5777945102       -0.3329907022
 H         -8.4226395697        0.5414308796        0.6699621385
 H         -5.9756117898        0.9223826896        1.0117484990
 H         -3.9922467094        0.1412832405       -1.6871079109
 H         -2.5991196992        1.0767828211       -3.2975393105
 H         -0.3638202391        1.9604180014       -3.8419277299
 H          1.3254363506        2.2512026209       -2.0704977395
 H          0.6647204701        1.1888612399        1.4828369001
 C          1.1776488101        3.1817970201        0.9111879707
 C          0.0791385199        3.8457744298        1.6831549307
 C          1.4142502898        3.6162264297        2.3246555109
 H          2.0574565998        4.4651322696        2.5011481812
 H          1.4922083198        2.8447167994        3.0772873607
 H         -0.1974103201        4.8548132598        1.4189982410
 H         -0.7500139501        3.2310317496        2.0015127604
 H          1.6595449402        3.7491245103        0.1255390410
