  62
        -98.94627300
 C         -1.5369209079       -1.4631998471       -0.0895780858
 C         -1.5144741132       -0.1054429673        0.3127230717
 C         -2.8107491646        0.4585332010        0.7100467968
 C         -3.9087074242       -0.3186460356        0.7069160294
 C         -5.2951415429        0.1088363016        1.1066648369
 C         -6.0800248854        0.8092452574       -0.0111600517
 C         -5.6146079554        2.2274651442       -0.3442060540
 H         -6.3824699691        2.6749549677       -0.9785688517
 H         -5.5661622759        2.8167668527        0.5719424671
 C         -4.2671702697        2.2960482300       -1.0766411295
 H         -4.3467524260        2.9865078171       -1.9194203807
 H         -4.0280756651        1.3134622947       -1.4899371282
 C         -3.0975072357        2.7667286181       -0.2119226937
 H         -3.2622270903        3.8027136798        0.0922906972
 H         -2.1888487859        2.7286620496       -0.8173129794
 C         -2.8612387566        1.9186124223        1.0442153362
 H         -1.8911583368        2.1915998200        1.4666150329
 H         -3.6367469884        2.1151304358        1.7840748726
 H         -6.0351629989        0.1902064652       -0.9102741647
 H         -7.1244303918        0.8575867092        0.3059728839
 H         -5.8325758909       -0.7997866280        1.3867430517
 H         -5.2400620113        0.7619264737        1.9781257204
 O         -3.8783774924       -1.6311762329        0.3489070160
 C         -2.7009258186       -2.2292906221       -0.0740688136
 O         -2.8182839977       -3.4306857616       -0.3923650595
 H          2.3139993923       -1.0963385839       -0.7838318052
 C          2.0530918710       -1.3861962876        0.2191693527
 C          0.8151385185       -1.9419780175        0.4967318925
 C          0.5402579458       -2.3397916903        1.8031529132
 C          1.4725430066       -2.1623480031        2.8061893586
 C          2.6940153576       -1.5710490926        2.5326813755
 C          2.9826520347       -1.1833669764        1.2304481263
 N          4.2144897899       -0.5947657054        0.9173725259
 S          4.3517421509        0.5120688338       -0.3239641103
 O          4.3493967494       -0.1685544810       -1.5955983909
 O          5.5656802406        1.2377646057       -0.0102092530
 C          2.9554311006        1.6155139824       -0.2122584347
 C          2.1929331802        1.8559876409       -1.3355665987
 C          1.1383981479        2.7492092342       -1.2525104177
 C          0.8637549229        3.3815491950       -0.0517304869
 C          1.6383127234        3.1286110464        1.0684827542
 C          2.6967411408        2.2398284878        0.9905529364
 H          3.3180926936        2.0278654190        1.8458630822
 H          1.4152026307        3.6164489948        2.0040673821
 H          0.0352157966        4.0695100864        0.0133724243
 H          0.5287646332        2.9403855261       -2.1220308812
 H          2.4350741253        1.3357231834       -2.2493954495
 H          4.7944539006       -0.3562590204        1.7075755953
 H          3.4173595792       -1.4152070772        3.3183370210
 H          1.2433331994       -2.4741762288        3.8141859128
 H         -0.4224523197       -2.7827549217        2.0211458784
 C         -0.2498772706       -2.1185227818       -0.5571605072
 H         -0.4656538713       -3.1915721495       -0.6623889282
 C          0.1465448437       -1.5609186991       -1.9084478415
 C          0.9917903981       -2.3713967939       -2.8429776246
 C         -0.4571129041       -2.1414896657       -3.1500398850
 H         -0.7147870362       -1.4750043343       -3.9595119276
 H         -1.1439637122       -2.9667024409       -3.0288497530
 H          1.2908462676       -3.3566444946       -2.5181246247
 H          1.7369371209       -1.8642634323       -3.4379541744
 H          0.3005231725       -0.4875557839       -1.8831681914
 O         -0.4728483864        0.5962144990        0.3420330916
