  62
        -98.94185825
 C         -2.7757092950       -0.3081851025       -0.2772655837
 C         -2.0241256845        0.5220893741       -1.1442219253
 C         -2.0457023852        1.9602992683       -0.8399143219
 C         -2.7779056106        2.4125621341        0.1925705645
 C         -2.8507895439        3.8437960434        0.6372574974
 C         -1.8018222931        4.1519847520        1.7144120040
 C         -0.3876154811        3.6883831320        1.3627658342
 H          0.2695117131        4.0101372431        2.1742447547
 H         -0.3514405889        2.5957360307        1.3468397949
 C          0.1495534357        4.2259377423        0.0293320631
 H          1.1818596975        4.5493677875        0.1781624786
 H         -0.4256595604        5.1000107833       -0.2797666310
 C          0.1634294959        3.1945157971       -1.1005883712
 H          0.6182994518        2.2705776025       -0.7318167883
 H          0.7918220348        3.5807894571       -1.9081046552
 C         -1.2058320400        2.8562976522       -1.7056067561
 H         -1.7411065301        3.7770329155       -1.9464844794
 H         -1.0358917870        2.3037359084       -2.6342041539
 H         -2.1008364582        3.6572881373        2.6415296607
 H         -1.7974603780        5.2295009500        1.8904606186
 H         -3.8446504983        4.0229412914        1.0514301254
 H         -2.7040364389        4.4932350887       -0.2235495601
 O         -3.5212482768        1.5936054415        0.9796961819
 C         -3.5103496629        0.2242518027        0.7875555180
 O         -4.2009345091       -0.4102416212        1.6107840445
 O         -1.3583774632        0.1111705373       -2.1336565737
 C         -2.7865125090       -1.8293261066       -0.3707866231
 C         -1.5284272267       -2.3483338279        0.2840040343
 C         -1.5722801196       -3.0714159532        1.4700117061
 C         -0.4039674797       -3.4417749105        2.1147439943
 C          0.8303921928       -3.0809905688        1.6030822164
 C          0.8803947099       -2.3633057692        0.4166406726
 C         -0.2873905938       -2.0252847222       -0.2458298965
 H         -0.2343846871       -1.4506919538       -1.1585915518
 N          2.1348346671       -1.9125362939       -0.0795274954
 S          2.6447663243       -0.5649083230        0.8193794940
 O          2.9956810412       -1.0255571712        2.1394476764
 O          1.6516056427        0.4852875853        0.7570592149
 C          4.1150193829       -0.0866700513       -0.0672560039
 C          5.2723082869       -0.8141649889        0.1343581300
 C          6.4101089361       -0.4715591943       -0.5781927091
 C          6.3711892142        0.5855389735       -1.4755708951
 C          5.2018949539        1.3058108560       -1.6668861422
 C          4.0593931726        0.9670371716       -0.9585806826
 H          3.1297913721        1.5023848426       -1.0725522106
 H          5.1736423670        2.1278624850       -2.3639334030
 H          7.2580649053        0.8512347654       -2.0288494207
 H          7.3217193354       -1.0280896865       -0.4320364459
 H          5.2555938674       -1.6214580831        0.8473840084
 H          2.0314191253       -1.6022693135       -1.0395949823
 H          1.7459028431       -3.3177870312        2.1199545629
 H         -0.4560553789       -3.9990878621        3.0379663077
 H         -2.5318365032       -3.3155651299        1.9029676400
 H         -3.6426448208       -2.1608909692        0.2315760172
 C         -2.9571757473       -2.3571314589       -1.7805636810
 C         -3.4472672961       -3.7598178352       -1.9723202024
 C         -4.3377979418       -2.6019534623       -2.3071552170
 H         -4.5377411227       -2.3849522092       -3.3455965565
 H         -5.1681164187       -2.3891736967       -1.6493654885
 H         -3.0350622801       -4.3424764174       -2.7816285635
 H         -3.6756741757       -4.3346702020       -1.0875508569
 H         -2.2216067164       -1.9790280370       -2.4773802993
