  62
        -98.94150314
 C          2.5669615125        0.0302190691        0.0922996731
 C          2.5234786531       -1.1246495796        0.9118712638
 C          2.0717088187       -2.3619106449        0.2692179226
 C          1.7139549634       -2.3444455130       -1.0272811193
 C          1.2007690269       -3.5144953621       -1.8211652149
 C         -0.3049170150       -3.7518965948       -1.6389933081
 C         -0.7035848941       -4.3835525799       -0.3043189140
 H         -1.7353992703       -4.7252565879       -0.4071365863
 H         -0.0843569807       -5.2616405450       -0.1154450751
 C         -0.6240060920       -3.4264013095        0.8932644098
 H         -0.6140916020       -2.3931643709        0.5360666770
 H         -1.5233587503       -3.5311879327        1.5059939805
 C          0.5744456903       -3.6524268990        1.8158001993
 H          0.4803934808       -4.6246249805        2.3062187233
 H          0.5535228369       -2.8801493478        2.5896813368
 C          1.9396189947       -3.5899334403        1.1189953347
 H          2.7133233026       -3.5448429426        1.8899890889
 H          2.0955555786       -4.4853556816        0.5173807468
 H         -0.6335228032       -4.4125007041       -2.4448891012
 H         -0.8223525245       -2.7955554734       -1.7514554140
 H          1.7522396732       -4.4165660467       -1.5540478514
 H          1.3907430870       -3.2854354812       -2.8718836743
 O          1.7896266160       -1.2235629490       -1.7887550678
 C          2.1599940231       -0.0031056929       -1.2435937372
 O          2.1027531906        0.9442567029       -2.0503567985
 O          2.8377736982       -1.1169411298        2.1344705937
 C          2.8820017695        1.3568508075        0.7619405590
 C          1.7787638638        2.3384941894        0.4475636306
 C          1.9830482024        3.6569642070        0.0682568774
 C          0.9019765966        4.4790172103       -0.2087969127
 C         -0.3929518769        4.0022447636       -0.1438610570
 C         -0.6071584431        2.6769449189        0.2259073807
 C          0.4709151222        1.8780691324        0.5562377189
 H          0.2928300474        0.8601936919        0.8745510202
 N         -1.9053942784        2.1335358962        0.2166080880
 S         -2.1659904397        0.4966178727        0.4528524492
 O         -1.9507229475        0.1235218159        1.8363545957
 O         -1.4244751445       -0.2388119327       -0.5395922459
 C         -3.9077112929        0.4239092441        0.0818607761
 C         -4.8267771373        0.3000631440        1.1057551043
 C         -6.1777149046        0.2732220633        0.7952652211
 C         -6.5838519876        0.3719734046       -0.5267157591
 C         -5.6493002137        0.4941328513       -1.5447446354
 C         -4.2977719578        0.5207931897       -1.2404940232
 H         -3.5339627039        0.6065171727       -1.9963996898
 H         -5.9681813888        0.5683332090       -2.5719334194
 H         -7.6352292364        0.3514597628       -0.7663370201
 H         -6.9060388572        0.1755190426        1.5841097725
 H         -4.4624674498        0.2196953822        2.1173041142
 H         -2.6253010160        2.7236420998        0.6050106595
 H         -1.2309997912        4.6355161578       -0.3884603699
 H          1.0752257091        5.5044164371       -0.4985318417
 H          2.9857547031        4.0399562480       -0.0280387579
 H          2.8270155806        1.1293345021        1.8414663703
 C          4.2803963034        1.8994466720        0.5096646457
 C          5.3824367164        1.0068563101        0.0245592816
 C          4.8346315858        2.0748298019       -0.8713025258
 H          5.4501426504        2.9402865180       -1.0690756111
 H          4.2064512047        1.7814051876       -1.6970891881
 H          6.3692639827        1.1367766608        0.4432073336
 H          5.1314623375       -0.0210310107       -0.1954751480
 H          4.5641575795        2.6468356928        1.2445059428
