  62
        -98.93583782
 C         -2.3870708664       -0.6981591332        0.2220413670
 C         -2.5444067531        0.7119316442        0.2225560664
 C         -3.7916965564        1.2345784483       -0.3494269271
 C         -4.6934464725        0.3711496425       -0.8505379005
 C         -6.0293446516        0.7547114534       -1.4168026124
 C         -7.1166037694        0.7395772226       -0.3332887981
 C         -6.7310725950        1.4954553634        0.9382337419
 H         -7.5835252540        1.4440480901        1.6189842453
 H         -5.9006636985        0.9772202755        1.4233784143
 C         -6.3459649345        2.9639971289        0.7112796426
 H         -6.7133485401        3.2978566197       -0.2596924382
 H         -6.8355759880        3.5760687992        1.4716223549
 C         -4.8460029121        3.2493065870        0.8096369971
 H         -4.4531481371        2.8340736548        1.7413614758
 H         -4.7075095160        4.3330336040        0.8516462042
 C         -3.9884031428        2.7244845639       -0.3490771773
 H         -4.4107886939        3.0572888534       -1.2995661177
 H         -2.9889879713        3.1579666347       -0.2466980276
 H         -7.3229212097       -0.2989314762       -0.0647050789
 H         -8.0276553294        1.1702237657       -0.7524707337
 H         -6.2927112921        0.0350094940       -2.1935845627
 H         -5.9575842540        1.7454148157       -1.8612780146
 O         -4.5036941651       -0.9705065871       -0.8525559116
 C         -3.3560182312       -1.5465336974       -0.3171959016
 O         -3.3441466135       -2.7875610725       -0.3943826576
 O         -1.6779097822        1.5002110297        0.6921961860
 C         -1.1073101654       -1.2381402500        0.8339377524
 C         -0.0259264793       -1.4125105043       -0.2026737898
 C         -0.2758832070       -2.0571887812       -1.4101047841
 C          0.7344009526       -2.2125083220       -2.3414219691
 C          2.0066307346       -1.7316076668       -2.0886069358
 C          2.2703076710       -1.0932690915       -0.8816506338
 C          1.2524351098       -0.9350029590        0.0492289598
 H          1.4620475633       -0.4156876570        0.9722120609
 N          3.5705378231       -0.6506809062       -0.5868570136
 S          3.8055102045        0.7343606909        0.3483118137
 O          3.5235746196        0.4178946826        1.7254953516
 O          3.0855463567        1.8512892108       -0.2211832912
 C          5.5617287907        0.9495640111        0.1294526265
 C          6.4196162907        0.1543196231        0.8657704394
 C          7.7858087854        0.2918874110        0.6796414513
 C          8.2690010980        1.2167841519       -0.2342993369
 C          7.3960207988        2.0095245544       -0.9639775227
 C          6.0280613346        1.8759191877       -0.7837592140
 H          5.3119816487        2.4757934627       -1.3223487863
 H          7.7746081412        2.7300009722       -1.6709967421
 H          9.3328765648        1.3224935358       -0.3766431029
 H          8.4677702136       -0.3207133541        1.2469264095
 H          5.9984016352       -0.5435754312        1.5703313348
 H          4.1697545466       -0.6408105331       -1.4014652114
 H          2.7923728384       -1.8530121701       -2.8186743692
 H          0.5274687594       -2.7116930078       -3.2761518848
 H         -1.2660715961       -2.4396125726       -1.6062702394
 H         -0.7686129394       -0.4452097415        1.5213399124
 C         -1.3225683023       -2.4949371689        1.6672721436
 C         -0.8378978162       -3.8503630402        1.2593401266
 C         -0.1647254424       -3.1254324978        2.3833233826
 H         -0.3120258181       -3.4785330229        3.3927802481
 H          0.8157978615       -2.7113579948        2.1988629084
 H         -1.4704505518       -4.6944896925        1.4867629165
 H         -0.3119967369       -3.9421780565        0.3224708839
 H         -2.2666720968       -2.4649525894        2.2022659428
