  62
        -98.94355203
 C         -1.8358136131       -0.3006762999       -0.2748593169
 C         -2.9788199936       -0.5778243134       -1.0612957356
 C         -4.2613094538       -0.5986462246       -0.3455898099
 C         -4.2762927529       -0.3787656524        0.9821324425
 C         -5.5157926561       -0.3250506844        1.8266627166
 C         -6.0631713418        1.1060119838        1.9208395094
 C         -6.1953055009        1.8069258967        0.5687742293
 H         -6.6191202627        2.7960666223        0.7551147954
 H         -5.1991768111        1.9581862760        0.1467692268
 C         -7.0679917018        1.0608841391       -0.4501537361
 H         -7.7366494678        1.7781705228       -0.9307767978
 H         -7.6933431171        0.3289742099        0.0623649037
 C         -6.2853314122        0.3653778378       -1.5655089008
 H         -5.5885761094        1.0736050264       -2.0209391996
 H         -6.9944380022        0.0607349810       -2.3399288929
 C         -5.4988457965       -0.8840593443       -1.1493054695
 H         -6.1571098743       -1.5714521468       -0.6138832921
 H         -5.1548557303       -1.3792697211       -2.0622912304
 H         -7.0375463859        1.0709725232        2.4115593779
 H         -5.3879977943        1.6939734018        2.5466742186
 H         -6.2684310931       -0.9856997067        1.4006384174
 H         -5.2637749790       -0.6749910127        2.8291158844
 O         -3.1551916400       -0.1324317277        1.7066531376
 C         -1.9080943412       -0.0808220644        1.1008780563
 O         -0.9672319805        0.1607761047        1.8792830675
 O         -2.9273868889       -0.8047392919       -2.3008501334
 C         -0.4751433919       -0.2577565962       -0.9444433173
 C          0.4529024526       -1.2782597076       -0.3328715500
 C         -0.0271950004       -2.5583166442       -0.0661810961
 C          0.7913039347       -3.5183356954        0.4946790087
 C          2.1136715879       -3.2302117815        0.7838246804
 C          2.6085927731       -1.9627373544        0.5067488699
 C          1.7788939213       -0.9952261946       -0.0449510945
 H          2.1834629968       -0.0185686218       -0.2513221151
 N          3.9406936822       -1.6353180714        0.7970035012
 S          4.8256934088       -0.6946402613       -0.2645574820
 O          4.4385779834       -0.9286123936       -1.6361058588
 O          6.2070390886       -0.9823041167        0.0605159717
 C          4.4701171794        0.9876029056        0.1967525050
 C          4.4127147659        1.9500806638       -0.7917325702
 C          4.1846152597        3.2693396692       -0.4321930043
 C          4.0185918197        3.6011795040        0.9034046481
 C          4.0813896327        2.6228129959        1.8840669695
 C          4.3139762289        1.3029547321        1.5318304261
 H          4.3647061997        0.5190963970        2.2687904419
 H          3.9482821402        2.8837415271        2.9216716183
 H          3.8377107244        4.6275876577        1.1813281018
 H          4.1356459206        4.0314207305       -1.1939331285
 H          4.5350922734        1.6457586422       -1.8191275727
 H          4.4928499166       -2.3884848038        1.1802914104
 H          2.7558171020       -3.9795731385        1.2213018419
 H          0.3999750476       -4.5028083318        0.7033908572
 H         -1.0579468627       -2.7889755830       -0.2991238075
 H         -0.6538100427       -0.5484256636       -1.9911500405
 C          0.0756425187        1.1529596904       -0.9193421270
 C          0.9858476053        1.6339981992       -2.0082966126
 C         -0.4220158167        2.1406880024       -1.9302638872
 H         -0.5868366165        3.1607218605       -1.6176389511
 H         -1.1364265142        1.7856492407       -2.6587891089
 H          1.7872349222        2.3075706484       -1.7449360347
 H          1.2370815881        0.9382279910       -2.7949420634
 H          0.2501008689        1.5114738366        0.0891947000
