  62
        -98.93861249
 C         -1.7719020922       -0.8560812527        0.2895949776
 C         -2.0027810555        0.4955524275       -0.0767181125
 C         -3.3346759099        0.8133799418       -0.6052651825
 C         -4.2389969087       -0.1740260334       -0.7345186842
 C         -5.6508698874        0.0126549499       -1.2078971256
 C         -6.6007172678        0.2786871612       -0.0316428000
 C         -6.1090853081        1.3637580005        0.9264578385
 H         -6.8714817812        1.4849077182        1.6991216746
 H         -5.2009080063        1.0149711068        1.4234433375
 C         -5.8332455360        2.7201691166        0.2626096958
 H         -6.2631737608        3.5080370518        0.8847483927
 H         -6.3305307018        2.7659328574       -0.7069442689
 C         -4.3497336591        3.0500376159        0.0872799020
 H         -4.2664369583        4.1055372513       -0.1848546354
 H         -3.8296714867        2.9153044089        1.0389714891
 C         -3.6087603810        2.2413534860       -0.9850065024
 H         -4.1578202760        2.2904748150       -1.9275405575
 H         -2.6285441387        2.7038316361       -1.1324252070
 H         -6.7195474679       -0.6486159088        0.5336434525
 H         -7.5764900652        0.5591187206       -0.4324827114
 H         -5.6851075236        0.8425776311       -1.9111049461
 H         -5.9661518065       -0.8985083159       -1.7190465116
 O         -3.9766847415       -1.4613280903       -0.3999193914
 C         -2.7432654249       -1.8432962328        0.1199816768
 O         -2.6665120880       -3.0587477646        0.3733458688
 H          2.0378898447       -0.1414592245        0.3939401182
 C          1.7954413600       -0.9158615972       -0.3162980896
 C          0.5656038943       -1.5512898264       -0.2383329794
 C          0.2548068217       -2.5315034008       -1.1755141278
 C          1.1686816899       -2.8717235299       -2.1561168642
 C          2.4050446965       -2.2524857248       -2.2158317090
 C          2.7212076006       -1.2645443307       -1.2900942266
 N          3.9500080465       -0.5999389350       -1.3450288624
 S          4.6627042569        0.0515390084        0.0171985047
 O          6.0451076833        0.2444624615       -0.3637307224
 O          4.4347132550       -0.7689232629        1.1834786467
 C          3.8801819661        1.6390035634        0.2035375166
 C          3.3567399558        2.0082762881        1.4262644904
 C          2.7575726426        3.2515152568        1.5515550050
 C          2.6937827477        4.0995200116        0.4572337557
 C          3.2287377472        3.7157282185       -0.7630585032
 C          3.8295116379        2.4745526392       -0.8943694137
 H          4.2557823716        2.1424448741       -1.8263393923
 H          3.1748841604        4.3784264954       -1.6118306563
 H          2.2210325576        5.0638940814        0.5563417845
 H          2.3376202964        3.5500768261        2.4987702863
 H          3.4188178713        1.3152269372        2.2510559847
 H          4.6171379082       -0.9596110198       -2.0104749869
 H          3.1190124216       -2.5276447698       -2.9770195790
 H          0.9194611178       -3.6356520910       -2.8773623421
 H         -0.7034891047       -3.0261504200       -1.1209183353
 C         -0.3988731529       -1.1692664165        0.8545765382
 H         -0.0466701565       -0.2129639699        1.2743882136
 C         -0.4170856152       -2.1761464839        1.9958115479
 C          0.1250688236       -3.5663284839        1.8880978178
 C          0.8635438896       -2.5387573093        2.6893088223
 H          0.8635741310       -2.6229233792        3.7657518364
 H          1.7846320221       -2.1492118157        2.2786376787
 H         -0.4062809928       -4.3500301013        2.4062089397
 H          0.5489820000       -3.8802812376        0.9475496069
 H         -1.2923287111       -2.0550514709        2.6264291275
 O         -1.1303609141        1.3971210700        0.0427470360
