  62
        -98.93912410
 C         -2.2724062473       -0.4581234408       -0.0513322119
 C         -3.5449546195       -1.0467897445        0.1445352877
 C         -4.6178370931       -0.1360455087        0.5648407897
 C         -4.3344891665        1.1642108690        0.7646257277
 C         -5.3385833352        2.2107168611        1.1507691828
 C         -5.9457585854        2.8817928826       -0.0890382295
 C         -6.4450045438        1.8932666003       -1.1427736315
 H         -6.8816878087        2.4772145560       -1.9558665497
 H         -5.5909383274        1.3531863041       -1.5579359087
 C         -7.4793062638        0.8837323734       -0.6255862825
 H         -8.2918227832        0.8121494996       -1.3516758236
 H         -7.9113327673        1.2418420445        0.3095269397
 C         -6.9375069337       -0.5326899583       -0.4238093971
 H         -7.7875463672       -1.2029584365       -0.2706250578
 H         -6.4222627778       -0.8601565362       -1.3303736230
 C         -5.9872907484       -0.7221373528        0.7654406753
 H         -6.4480161575       -0.3238602050        1.6717618760
 H         -5.8355306454       -1.7970461556        0.9008941709
 H         -5.1832019285        3.5153364948       -0.5478023930
 H         -6.7700993063        3.5205616290        0.2331561533
 H         -6.1230067335        1.7511976376        1.7488572580
 H         -4.8315059211        2.9676913502        1.7513198600
 O         -3.0948083233        1.6884829083        0.5903605462
 C         -2.0341773657        0.8982603743        0.1706006070
 O         -0.9600553841        1.5140445014        0.0386168464
 H          1.5144582811       -0.5110520934       -0.6832760310
 C          1.2476678330       -0.8587701690        0.2986476497
 C         -0.0342954112       -1.3169919299        0.5561128041
 C         -0.3453518113       -1.7588409024        1.8399862903
 C          0.6061532335       -1.7417017664        2.8401118823
 C          1.8874629020       -1.2895550958        2.5777443953
 C          2.2085619762       -0.8409227550        1.3015904259
 N          3.4940706152       -0.3272777649        1.0488644660
 S          4.4001010462       -0.6660446113       -0.3273062218
 O          3.5985957923       -0.5278271408       -1.5135827641
 O          5.0756249240       -1.9375160854       -0.1569001117
 C          5.5846644450        0.6613923434       -0.2366840057
 C          5.1372517906        1.9393116210       -0.5120287260
 C          6.0329645852        2.9934912680       -0.4346545229
 C          7.3537095618        2.7531110524       -0.0843741438
 C          7.7874830817        1.4650312533        0.1888155455
 C          6.8959328393        0.4059735581        0.1135779569
 H          7.1898938102       -0.6120756639        0.3118768577
 H          8.8148705317        1.2822937926        0.4596128735
 H          8.0483546151        3.5761387449       -0.0253871871
 H          5.6981769594        3.9963473860       -0.6464245314
 H          4.1030774424        2.0792854213       -0.7827941344
 H          4.1017047956       -0.4207752867        1.8526493408
 H          2.6318768815       -1.2746609599        3.3598944169
 H          0.3525960064       -2.0870751424        3.8312652936
 H         -1.3477143383       -2.1126953225        2.0407997018
 C         -1.1191014328       -1.3421259956       -0.4924321490
 H         -1.5313488642       -2.3614478009       -0.5304535824
 C         -0.6394525773       -0.9619785210       -1.8762274509
 C          0.1188661242       -1.9579311430       -2.6998591519
 C         -1.2829510363       -1.5857126993       -3.0766105886
 H         -1.4375392687       -0.9756538551       -3.9539177569
 H         -2.0673200477       -2.3078063391       -2.9019364953
 H          0.9369248057       -1.6050785557       -3.3096722813
 H          0.2874318967       -2.9334711052       -2.2685627703
 H         -0.3532053540        0.0812219566       -1.9511307752
 O         -3.7709814451       -2.2764851961       -0.0184079368
