  62
        -98.94044506
 C         -2.3691441310       -0.7398175946       -0.1211349050
 C         -3.5470083579       -1.0713652220        0.5899543555
 C         -4.8051196488       -0.5789973631        0.0141511289
 C         -4.7712980485        0.1260492939       -1.1317158909
 C         -5.9708173874        0.7333555279       -1.7987223281
 C         -6.2081917745        2.1701217675       -1.3128724663
 C         -6.1947195914        2.3176643657        0.2086079412
 H         -5.1893101896        2.1027661965        0.5779556875
 H         -6.4027479390        3.3655131612        0.4355284439
 C         -7.2054826098        1.4251851958        0.9422876202
 H         -7.9684472499        1.0783902564        0.2445364679
 H         -7.7104599895        2.0217222029        1.7049554109
 C         -6.5877560772        0.2212915602        1.6559857927
 H         -5.7602653349        0.5543472284        2.2876033667
 H         -7.3468990511       -0.2108782201        2.3133397187
 C         -6.0767402575       -0.9036180587        0.7468449346
 H         -5.8445486841       -1.7639568450        1.3813707949
 H         -6.8614061515       -1.1956410366        0.0461258656
 H         -7.1672818601        2.5130187177       -1.7051424693
 H         -5.4234578531        2.8084037429       -1.7253741016
 H         -5.7943023847        0.7478120734       -2.8754499872
 H         -6.8449088114        0.1191602327       -1.5914936506
 O         -3.6212435521        0.4102509012       -1.7952945254
 C         -2.3912583159       -0.0042226391       -1.3058493437
 O         -1.4188146421        0.3369508107       -2.0054216139
 H          1.6068315339       -0.8388941934       -0.3346382552
 C          1.1977856106       -0.0117606399        0.2205277420
 C         -0.1150756124       -0.0351814632        0.6617126228
 C         -0.5957206413        1.0588201425        1.3779763894
 C          0.2136618987        2.1481382164        1.6328176099
 C          1.5269727773        2.1641878047        1.1962930975
 C          2.0182913110        1.0769746537        0.4846583960
 N          3.3399654568        1.0686525426        0.0115232595
 S          4.1709612492       -0.3992200980       -0.0408668782
 O          3.8409722373       -1.0855857354       -1.2642957803
 O          3.9536056216       -1.1346378785        1.1845613948
 C          5.8540969314        0.1868883945       -0.1162626925
 C          6.5854280714        0.2944513470        1.0517831892
 C          7.8836675447        0.7756565501        0.9882412257
 C          8.4249724434        1.1415035143       -0.2350131621
 C          7.6791666779        1.0272407407       -1.3989202627
 C          6.3807960151        0.5459178118       -1.3426631992
 H          5.7665252585        0.4310540179       -2.2206553086
 H          8.1044213482        1.3097306019       -2.3484513702
 H          9.4355969732        1.5152502958       -0.2822000823
 H          8.4672007582        0.8623042997        1.8905971209
 H          6.1269168453       -0.0115865251        1.9783662601
 H          3.9058713285        1.8085246081        0.4037599789
 H          2.1612768008        3.0138953144        1.3981620852
 H         -0.1770453664        2.9901848921        2.1844249106
 H         -1.6185608858        1.0419599516        1.7299379992
 C         -1.0308865639       -1.2090439943        0.4177407189
 H         -1.2525381795       -1.6742229379        1.3907233147
 C         -0.4340332166       -2.2601505923       -0.4939950295
 C          0.5078713157       -3.2885900434        0.0545044671
 C         -0.8770269885       -3.6848092281       -0.3583160492
 H         -1.0003448617       -4.2741312347       -1.2544572950
 H         -1.5970443488       -3.9076617752        0.4155225434
 H          0.7356261844       -3.2454847370        1.1092260789
 H          1.3428138531       -3.5981634442       -0.5568731433
 H         -0.2500815151       -1.8861510300       -1.4957847850
 O         -3.5449704555       -1.7422224700        1.6575229926
