  62
        -98.93872087
 C          1.8772403595        0.6563940098        0.8736066995
 C          2.2196768893       -0.7184764403        0.7891393397
 C          3.6456913293       -1.0295566305        0.6493776595
 C          4.5449696794       -0.0294157306        0.6387817892
 C          6.0391053894       -0.1805377809        0.5430650190
 C          6.5629089891       -0.3292398911       -0.8917555910
 C          6.2677812688       -1.6752956412       -1.5544678008
 H          6.8726911487       -1.7251795614       -2.4620722309
 H          6.5980826688       -2.4815602711       -0.8987953608
 C          4.7943018288       -1.8852503610       -1.9306735806
 H          4.2765737689       -0.9231513110       -1.9287511906
 H          4.7307252885       -2.2794679712       -2.9474420305
 C          4.0387820088       -2.8543674008       -1.0211139603
 H          4.4657390086       -3.8551305909       -1.1174272802
 H          2.9991635687       -2.8970169807       -1.3558350902
 C          4.0424851790       -2.4627205706        0.4624484496
 H          5.0248928591       -2.6456768007        0.8975342895
 H          3.3068393890       -3.0810261704        0.9824081998
 H          7.6465050092       -0.1939485913       -0.8586304912
 H          6.1461640292        0.4761305788       -1.5009846511
 H          6.4708599696        0.7249699491        0.9749186888
 H          6.3588408493       -1.0361993308        1.1385862591
 O          4.1823957196        1.2750558294        0.7396308191
 C          2.8465309097        1.6598002796        0.8260725492
 O          2.6901109299        2.8932454297        0.8578156591
 O          1.3666172892       -1.6446673402        0.8409676099
 C          0.3990896496        0.9711392700        1.0066873097
 C         -0.2642492006        1.1493398499       -0.3349691502
 C          0.3310720194        1.8806207497       -1.3570992104
 C         -0.3172167408        2.0449407396       -2.5678669803
 C         -1.5771484409        1.5100646998       -2.7723314301
 C         -2.1824299808        0.7807646800       -1.7561324899
 C         -1.5129967307        0.5876429801       -0.5560338099
 H         -1.9757640406       -0.0044008098        0.2180776502
 N         -3.4601359609        0.2282655902       -1.9193068196
 S         -4.5504068107        0.3104440605       -0.6472852494
 O         -5.8508774508        0.2427837606       -1.2777977692
 O         -4.3003212904        1.4641659906        0.1833876704
 C         -4.2754045208       -1.1888250094        0.2706447007
 C         -4.3841269311       -2.3922959095       -0.3976382491
 C         -4.1849087311       -3.5685679094        0.3064684110
 C         -3.8836659309       -3.5219043593        1.6594208310
 C         -3.7820749407       -2.3057353892        2.3168022008
 C         -3.9806310406       -1.1254046393        1.6179747707
 H         -3.9060153604       -0.1584545592        2.0911161005
 H         -3.5463109405       -2.2707429891        3.3684314608
 H         -3.7264971110       -4.4384730792        2.2058523411
 H         -4.2628057614       -4.5171155695       -0.1999869188
 H         -4.6240380912       -2.3873748096       -1.4477608191
 H         -3.9007189210        0.4309943401       -2.8048391396
 H         -2.0883026710        1.6555450797       -3.7119823100
 H          0.1568667592        2.6108481994       -3.3558957605
 H          1.3000136295        2.3271377696       -1.1897905306
 H         -0.0378516704        0.0683653601        1.4639448299
 C          0.1063964199        2.1338634902        1.9446910496
 C         -0.2870166400        3.4977102402        1.4731209795
 C         -1.2980142000        2.6226424404        2.1481261598
 H         -1.6112121998        2.8773878906        3.1497666398
 H         -2.0840637001        2.2039693404        1.5357210199
 H          0.1135169302        4.3474845502        2.0043315093
 H         -0.3824113101        3.6599622100        0.4109258695
 H          0.7373084401        2.1009301502        2.8278781895
