  62
        -98.93555157
 C          2.3260102701        0.6163225101        0.8760270500
 C          3.4883923101        1.0409079003        0.1840927802
 C          4.6610264501        0.1566405603        0.2994985300
 C          4.5758588501       -0.9727796400        1.0234814796
 C          5.6752108701       -1.9834870000        1.1738094993
 C          5.5873160101       -3.0689867396        0.0919461389
 C          5.4310371102       -2.5176165291       -1.3252637409
 H          5.4107996703       -3.3717450389       -2.0056226712
 H          4.4625223602       -2.0187473691       -1.4077884208
 C          6.5400843702       -1.5471622790       -1.7550616905
 H          6.8586946403       -1.8060156286       -2.7669666606
 H          7.4065854702       -1.6629237892       -1.1030940805
 C          6.1197410502       -0.0766309390       -1.7825262400
 H          5.1964234803        0.0295009212       -2.3573554600
 H          6.8964067603        0.4894424712       -2.3035257798
 C          5.9136397502        0.5838400305       -0.4135968998
 H          6.7906474401        0.4124980103        0.2136696102
 H          5.8114121702        1.6606049106       -0.5771094394
 H          4.7253811301       -3.7043601697        0.3089207786
 H          6.4866045401       -3.6851307697        0.1480779487
 H          5.5784440300       -2.4518379704        2.1547563091
 H          6.6365342301       -1.4764520600        1.1171794395
 O          3.4438840800       -1.3480355202        1.6744725494
 C          2.3009372600       -0.5700608602        1.6138809696
 O          1.3372956500       -1.0298201204        2.2620113094
 O          3.5665213002        2.0938584706       -0.4974832194
 C          1.0280450301        1.4065516401        0.8801409202
 C          0.1534474101        1.0381752005       -0.2915148500
 C          0.6631713302        0.9681210909       -1.5841708100
 C         -0.1604729197        0.6311892613       -2.6425766102
 C         -1.5015957597        0.3627692212       -2.4348667303
 C         -2.0246677398        0.4413816108       -1.1486703703
 C         -1.1931302299        0.7727033804       -0.0875980602
 H         -1.6031315299        0.8052831101        0.9105658598
 N         -3.3967347198        0.2322682207       -0.9314784205
 S         -3.9430566699       -0.4252364598        0.5225409592
 O         -3.8451053700        0.5790356698        1.5514590196
 O         -3.2854694899       -1.6865030999        0.7822913388
 C         -5.6566767799       -0.6899646997        0.1080601790
 C         -6.0967411999       -1.9604016696       -0.2106242714
 C         -7.4276497398       -2.1422295094       -0.5533735416
 C         -8.2895527398       -1.0561919694       -0.5748436112
 C         -7.8330627099        0.2133402804       -0.2520670408
 C         -6.5044748199        0.4017525703        0.0932055094
 H         -6.1067173199        1.3667140202        0.3605225197
 H         -8.5067563799        1.0547959004       -0.2674624605
 H         -9.3244865598       -1.2004995694       -0.8418665714
 H         -7.7861394198       -3.1282057594       -0.8015447619
 H         -5.3918236999       -2.7754697996       -0.1731042917
 H         -3.8526216198       -0.2064113290       -1.7202747107
 H         -2.1416900197        0.0988410015       -3.2629666005
 H          0.2469942303        0.5749892117       -3.6408324902
 H          1.7065353002        1.1888405810       -1.7497041898
 H          0.4982764300        1.0857061797        1.7924575700
 C          1.2475050801        2.9103033600        0.9941456307
 C          0.9636702201        3.8736893204       -0.1146699989
 C          0.0660342101        3.8306944300        1.0828180610
 H          0.0994706400        4.6467755797        1.7887658013
 H         -0.9136557699        3.3914898500        0.9625796408
 H          1.6362217501        4.7092795105       -0.2326639086
 H          0.5900802102        3.4810937407       -1.0469345491
 H          2.0946264200        3.1454122298        1.6305897909
