  62
        -98.94560772
 C         -1.3243188872       -1.6320491494       -0.0967118265
 C         -2.5899100429       -1.2320771888        0.3985044471
 C         -3.1773338819       -0.0357224632       -0.2130652934
 C         -2.5017220511        0.6202746118       -1.1728422439
 C         -2.9478275800        1.8753278166       -1.8722188952
 C         -2.6333196937        3.1552489463       -1.0845778783
 C         -3.5352137668        3.4102247633        0.1237834593
 H         -3.3730993718        4.4456187224        0.4303716263
 H         -4.5808074085        3.3163542201       -0.1730257427
 C         -3.2512784985        2.4962741097        1.3242063402
 H         -2.2549807015        2.0577202768        1.2208752253
 H         -3.2326654315        3.0951318146        2.2384383765
 C         -4.2797238129        1.3844438306        1.5363770361
 H         -3.9477432873        0.7702520771        2.3775215986
 H         -5.2438315093        1.8254954325        1.8014883213
 C         -4.4833686235        0.4620944304        0.3278279266
 H         -5.0438605586        0.9804889282       -0.4501041868
 H         -5.0599089897       -0.4066005982        0.6564410992
 H         -1.5938279832        3.1183065704       -0.7468257415
 H         -2.7329687860        3.9982268989       -1.7727498715
 H         -4.0176699009        1.8259647908       -2.0773158070
 H         -2.4123355974        1.9126152861       -2.8234498821
 O         -1.2982719601        0.1963129025       -1.6362247833
 C         -0.6588458385       -0.9083503829       -1.0875640124
 O          0.4656824043       -1.1297930978       -1.5734609113
 O         -3.1952275063       -1.8419640257        1.3216808371
 C         -0.6241998411       -2.7867302418        0.5970967609
 C          0.7885123648       -2.3807124345        0.9423484109
 C          1.8987005086       -3.1955391391        0.7641159089
 C          3.1648697888       -2.7373983733        1.0874657636
 C          3.3559456386       -1.4533604882        1.5625231054
 C          2.2506985016       -0.6301875881        1.7431315016
 C          0.9827699754       -1.1093226960        1.4691261593
 H          0.1365315937       -0.4562201863        1.6263051808
 N          2.3824180473        0.7013692181        2.1904645214
 S          1.7749511472        1.9023677526        1.1942173071
 O          2.3200545097        3.1295883229        1.7415337633
 O          0.3374627595        1.8300253491        1.1354574000
 C          2.4856217867        1.6279110271       -0.4190626460
 C          1.6731565383        1.6461317077       -1.5315471335
 C          2.2384432393        1.4454316504       -2.7807063292
 C          3.6013759568        1.2285334689       -2.8945745215
 C          4.4091604803        1.2245191635       -1.7675016707
 C          3.8492352751        1.4293209006       -0.5180495543
 H          4.4569376317        1.4469222668        0.3720816047
 H          5.4708193508        1.0602655985       -1.8593057651
 H          4.0365452017        1.0630783197       -3.8676187848
 H          1.6063756968        1.4467703610       -3.6541330703
 H          0.6141695053        1.8003562817       -1.4048275958
 H          3.3172635359        0.9457359161        2.4863507607
 H          4.3467063573       -1.0896378237        1.7889983590
 H          4.0175191287       -3.3836228684        0.9452942814
 H          1.7787999543       -4.1852770130        0.3554052056
 H         -1.1801617551       -2.9108801558        1.5426489423
 C         -0.7128100755       -4.1188786764       -0.1339120043
 C         -1.7340085381       -4.3508708674       -1.2062169062
 C         -0.2815595248       -4.2669664197       -1.5614258945
 H          0.2263939040       -5.1746825125       -1.8526418928
 H          0.0740190864       -3.3811344690       -2.0633105464
 H         -2.2231483761       -5.3127538604       -1.2468419680
 H         -2.3746622871       -3.5235405709       -1.4758767698
 H         -0.5176820008       -4.9603839800        0.5236781322
