  62
        -98.94074396
 C          1.6226786513        0.6194099799        0.3729417004
 C          2.7497230815        0.9081142599       -0.4362831993
 C          3.6923492515       -0.2056158401       -0.6290716892
 C          3.4239722712       -1.4177483002       -0.1137579694
 C          4.2710171412       -2.6526741802       -0.2602178094
 C          5.4176528909       -2.7478644804        0.7555879509
 C          6.5805244611       -1.7838795305        0.5168373013
 H          7.4004438409       -2.1050390306        1.1624058115
 H          6.9229628613       -1.8771129404       -0.5142321986
 C          6.2582540211       -0.3145864205        0.8233159814
 H          5.3573318209       -0.2601600205        1.4390633212
 H          7.0710221010        0.1224133794        1.4079817917
 C          6.0664715015        0.5634655197       -0.4134220985
 H          7.0052934716        0.6241024297       -0.9683607883
 H          5.8071127115        1.5719043196       -0.0808359385
 C          4.9657028517        0.0803180999       -1.3667445789
 H          4.7611734219        0.8772681400       -2.0857828488
 H          5.2996977517       -0.8038042101       -1.9091088889
 H          5.8057434809       -3.7682165905        0.7141216909
 H          5.0117858107       -2.5877942605        1.7572144208
 H          4.6749718014       -2.7026346901       -1.2717389193
 H          3.6059850911       -3.5054310002       -0.1082345097
 O          2.2976204010       -1.6705820802        0.6059917203
 C          1.3931642311       -0.6602379002        0.8849735002
 O          0.4282494809       -1.0202578402        1.5895043399
 O          2.9751965517        2.0182614900       -0.9798795691
 C          0.5584456213        1.6470865999        0.7219922602
 C         -0.5554883085        1.5983472901       -0.2917767200
 C         -0.2923069581        1.6887305303       -1.6557201600
 C         -1.3256732979        1.6266368205       -2.5717034602
 C         -2.6331840280        1.4558407905       -2.1495593406
 C         -2.9058000084        1.3597752304       -0.7903772006
 C         -1.8673132386        1.4420588702        0.1283261296
 H         -2.0938672289        1.3639841801        1.1807902596
 N         -4.2242645285        1.1992340704       -0.3321966610
 S         -4.5824204189        0.0339676403        0.8162935188
 O         -6.0273073489       -0.0319949196        0.8171839784
 O         -3.9614214592        0.3720825601        2.0702109390
 C         -3.9156772488       -1.4785131597        0.1471296287
 C         -2.6026816289       -1.8287145598        0.3877691290
 C         -2.1004840288       -2.9760195198       -0.2077290210
 C         -2.9095108787       -3.7489122296       -1.0251572813
 C         -4.2283425786       -3.3843325195       -1.2535789616
 C         -4.7355700487       -2.2369246595       -0.6676546516
 H         -5.7562583986       -1.9207329594       -0.8109429118
 H         -4.8583248485       -3.9889180393       -1.8859907318
 H         -2.5101170887       -4.6400376896       -1.4833872713
 H         -1.0728999789       -3.2464241499       -0.0201201108
 H         -1.9774807490       -1.2269282299        1.0284505393
 H         -4.9163662183        1.1844808206       -1.0679887012
 H         -3.4379073579        1.3996776207       -2.8666979108
 H         -1.1110943977        1.7033865506       -3.6268523202
 H          0.7283787419        1.8140018303       -1.9847218397
 H          0.1366158410        1.3146684398        1.6849617101
 C          1.1134002213        3.0480136599        0.9374945506
 C          0.8212165016        4.2045753300        0.0344421806
 C          0.1935761113        4.1425985599        1.3923902005
 H          0.5353537311        4.8232397798        2.1575127506
 H         -0.8603739488        3.9111733399        1.4469754102
 H          1.6165644517        4.9129561500       -0.1398417191
 H          0.1913452418        4.0383927802       -0.8249771895
 H          2.1013583112        3.0286546097        1.3855436208
