  62
        -98.93863987
 C          1.8246931355        0.8485668724        0.8402741659
 C          2.0730775232       -0.5480026654        0.8884999767
 C          3.4666434201       -0.9730028536        0.7110967916
 C          4.4171076904       -0.0384062235        0.5304449838
 C          5.8682204984       -0.3277001957        0.2797433152
 C          6.1598006948       -0.4412608891       -1.2232085474
 C          5.1953939752       -1.3608313879       -1.9725804726
 H          4.1957686148       -0.9203001336       -1.9546815778
 H          5.5160198948       -1.3863661871       -3.0163683574
 C          5.1270639922       -2.7927475496       -1.4234332824
 H          6.0003119067       -2.9929699900       -0.8014872649
 H          5.1597670947       -3.4911393198       -2.2623379944
 C          3.8572361187       -3.1074728123       -0.6304503082
 H          2.9794179768       -2.8197604677       -1.2145620784
 H          3.8102659886       -4.1891814385       -0.4793319261
 C          3.7534771220       -2.4475516701        0.7502054059
 H          2.9072441193       -2.9023799273        1.2732134016
 H          4.6609265570       -2.6482946311        1.3234288670
 H          7.1822383557       -0.8019151157       -1.3500523954
 H          6.0940964292        0.5559104833       -1.6646579155
 H          6.4593051329        0.4904207156        0.6947779296
 H          6.1410068982       -1.2525231700        0.7844544147
 O          4.1483407990        1.2901339494        0.5082789050
 C          2.8505889909        1.7742950761        0.6452841210
 O          2.7741634148        3.0139926551        0.5776288041
 H         -1.9859722968        0.2147615681        0.3233858904
 C         -1.5609430070        0.7900400644       -0.4836836016
 C         -0.3262351158        1.3973140892       -0.3117074715
 C          0.2231480796        2.1128429269       -1.3708227845
 C         -0.4628103177        2.2244087379       -2.5666387300
 C         -1.7079962071        1.6411480827       -2.7243107755
 C         -2.2622008735        0.9174858234       -1.6747462605
 N         -3.5087250723        0.2970178955       -1.8096233291
 S         -4.5305397223        0.1163084528       -0.4983383235
 O         -5.8354436301       -0.0893894097       -1.0882944969
 O         -4.4149040561        1.2231707808        0.4215297936
 C         -3.9914645170       -1.3964259321        0.2684722027
 C         -3.6898749079       -1.4168076496        1.6154296536
 C         -3.2733444437       -2.6064848096        2.1913987301
 C         -3.1678562969       -3.7491433150        1.4140818974
 C         -3.4802192648       -3.7135421458        0.0635020734
 C         -3.8973795223       -2.5274606546       -0.5178323404
 H         -4.1505645487       -2.4613176058       -1.5628249646
 H         -3.3957083646       -4.6050301054       -0.5369181398
 H         -2.8377242800       -4.6719891703        1.8643278469
 H         -3.0272552508       -2.6351698924        3.2408467542
 H         -3.7778783449       -0.5038972733        2.1841208036
 H         -4.0026726384        0.4931432871       -2.6671921484
 H         -2.2461404582        1.7416159376       -3.6545255435
 H         -0.0284141653        2.7833342033       -3.3820211347
 H          1.1847335439        2.5869641816       -1.2428027195
 C          0.3797365022        1.2769563063        1.0142254355
 H         -0.0922657511        0.4416415666        1.5565896486
 C          0.2072573303        2.5197622205        1.8762092764
 C         -0.2106017354        3.8524398415        1.3402421440
 C         -1.1683722641        3.0468515462        2.1631664385
 H         -1.3954799796        3.3790863077        3.1651293034
 H         -2.0027574889        2.5850787732        1.6538048502
 H          0.2430324104        4.7299555547        1.7751497338
 H         -0.3984255131        3.9429273982        0.2821218584
 H          0.9148346963        2.5386196268        2.6993957604
 O          1.1646121448       -1.4005604743        1.0798559653
