  62
        -98.93097747
 C          2.0483433298        1.1272458308        0.6600661009
 C          2.2701452402        0.4039567811       -0.5345660592
 C          2.7756059506       -0.9767173088       -0.3882459394
 C          2.9584944605       -1.4822509590        0.8437456606
 C          3.4458917108       -2.8522063089        1.2437292104
 C          4.6487112211       -3.4110656984        0.4677643806
 C          4.2869728517       -4.5726212883       -0.4592338398
 H          3.5586570717       -5.2077060887        0.0492440499
 H          5.1821406119       -5.1745859280       -0.6304115597
 C          3.7359755319       -4.1655033382       -1.8245625398
 H          3.3890348422       -5.0727704782       -2.3244848901
 H          4.5437752019       -3.7489558479       -2.4300719895
 C          2.5880676616       -3.1539763385       -1.7938452499
 H          1.8916693514       -3.3839549689       -0.9877156301
 H          2.0326080618       -3.2510909385       -2.7291435000
 C          3.0560149711       -1.6954471384       -1.6800740394
 H          2.5566838611       -1.0900253284       -2.4431050294
 H          4.1268019511       -1.6293300981       -1.8946842492
 H          5.3737488711       -3.7755185084        1.1972940807
 H          5.1300223610       -2.6123270582       -0.0943321592
 H          2.6047313310       -3.5473749092        1.1801762001
 H          3.6953107405       -2.7644785991        2.3038225405
 O          2.6758437500       -0.7659964193        1.9712764407
 C          2.2060528096        0.5318371706        1.9116938908
 O          1.9715932492        1.0439498703        3.0263135709
 O          2.0633761804        0.8762985313       -1.6828610591
 C          1.5028739494        2.5441729606        0.6451648411
 C          0.3358988796        2.6338277605       -0.3090950292
 C          0.2043748995        3.6103610807       -1.2866533490
 C         -0.9148175503        3.6350891105       -2.1015370392
 C         -1.9195840501        2.6976655902       -1.9587160997
 C         -1.7907544800        1.7062607400       -0.9901395998
 C         -0.6761832202        1.6909391302       -0.1703923896
 H         -0.5858565202        0.9229582500        0.5860169803
 N         -2.7709763898        0.7087115497       -0.8601181203
 S         -2.9309768399       -0.1440775806        0.5801687895
 O         -3.0180128904        0.7663623891        1.7013517597
 O         -1.8980294196       -1.1490842204        0.6473878795
 C         -4.5133555496       -0.9185217610        0.3036152490
 C         -5.6502268599       -0.3431923815        0.8392831388
 C         -6.8804250896       -0.9324244918        0.5928784984
 C         -6.9530759791       -2.0789928216       -0.1837152218
 C         -5.8034024988       -2.6458695812       -0.7137451817
 C         -4.5701507291       -2.0624086909       -0.4701068213
 H         -3.6491757588       -2.4707340305       -0.8528109412
 H         -5.8632406384       -3.5388629411       -1.3146957219
 H         -7.9112837689       -2.5355772719       -0.3748296322
 H         -7.7750064598       -0.4958611721        1.0067014883
 H         -5.5427972902        0.5430637284        1.4437652490
 H         -3.6626285197        0.9641176995       -1.2605370304
 H         -2.7890204599        2.7179267401       -2.5976467999
 H         -1.0048964104        4.3984571606       -2.8595149891
 H          0.9836300793        4.3415700809       -1.4243724186
 H          1.1021684191        2.6989807503        1.6623084010
 C          2.5551523991        3.6216002810        0.4262489016
 C          4.0002849891        3.3664501213        0.7324743118
 C          3.5558071494        3.5469763915       -0.6862389882
 H          3.8266138292        4.4617299217       -1.1929911180
 H          3.5172018798        2.6825636316       -1.3293075784
 H          4.5702653788        4.1547064014        1.2012103021
 H          4.2735507093        2.3744147513        1.0627816317
 H          2.1820745288        4.6086645908        0.6820901117
