  62
        -98.95113021
 C         -1.9886306794       -0.9164322825        0.1151163682
 C         -1.5254758502       -1.8465695058       -0.8474489565
 C         -0.4810211134       -2.7760534414       -0.3964081429
 C         -0.0611734444       -2.7245511857        0.8806308318
 C          1.0187534402       -3.5851174924        1.4682211220
 C          2.3947919965       -2.9130777905        1.3681509605
 C          2.7325014980       -2.3882499210       -0.0272743532
 H          2.0766639010       -1.5503866266       -0.2747757978
 H          3.7485758824       -1.9878875902        0.0119799442
 C          2.6387319861       -3.4347870337       -1.1460954852
 H          3.5091762654       -3.3266365877       -1.7965851300
 H          2.6695933933       -4.4403897490       -0.7237422092
 C          1.4015623873       -3.2901183670       -2.0351807146
 H          1.5555803325       -3.8909585360       -2.9360457730
 H          1.3046620388       -2.2466788965       -2.3492652973
 C          0.0741294313       -3.7375218036       -1.4079025477
 H         -0.6699675589       -3.7941236986       -2.2081029928
 H          0.1885437042       -4.7339428972       -0.9747336074
 H          2.4244030752       -2.0701774740        2.0623178896
 H          3.1519737582       -3.6365406207        1.6760944870
 H          0.7849619413       -3.7546075421        2.5207491865
 H          1.0323165491       -4.5424315403        0.9508240319
 O         -0.5616135332       -1.8491835145        1.7884327630
 C         -1.5019471006       -0.8945582515        1.4216485373
 O         -1.8139368038       -0.1109097524        2.3377354740
 O         -1.9683178916       -1.8958064763       -2.0270976499
 C         -2.9794850648        0.1529194809       -0.3152106915
 C         -2.2822184808        1.4912126874       -0.2540173968
 C         -2.7450591923        2.5789682546        0.4737311029
 C         -2.0072804898        3.7497934055        0.5214920659
 C         -0.7947094275        3.8543554586       -0.1348512263
 C         -0.3274248559        2.7750495473       -0.8778939009
 C         -1.0848952351        1.6171098839       -0.9496817623
 H         -0.7226880886        0.7861769995       -1.5379587652
 N          0.8974658204        2.8488083754       -1.5659122629
 S          2.0239164405        1.6179441967       -1.4599028088
 O          3.1891036361        2.1389791201       -2.1401590484
 O          1.4738807380        0.3938749329       -1.9803767305
 C          2.3833403841        1.4462120263        0.2777008915
 C          3.5564874650        1.9701119738        0.7843137724
 C          3.8112334268        1.8533599667        2.1413699291
 C          2.8889097754        1.2287390720        2.9679076662
 C          1.7125906282        0.7132809729        2.4454664192
 C          1.4585480901        0.8196331949        1.0877560246
 H          0.5522344263        0.4234448942        0.6574408652
 H          0.9789796765        0.2326453455        3.0747386517
 H          3.0852922537        1.1407627826        4.0248592529
 H          4.7257344526        2.2508045903        2.5512439274
 H          4.2450468908        2.4454649835        0.1046517036
 H          1.3597381357        3.7437779864       -1.4906068661
 H         -0.2132153453        4.7619028760       -0.0776834038
 H         -2.3751748176        4.5881731634        1.0930933888
 H         -3.6762424580        2.5078144465        1.0107541934
 H         -3.2051080686       -0.0669816038       -1.3692594254
 C         -4.2609212389        0.0844824598        0.4853225262
 C         -5.5330068409        0.6258855288       -0.0932685088
 C         -5.3422695096       -0.8539251825        0.0439372911
 H         -5.9065784166       -1.3809181321        0.7985346202
 H         -5.1630979606       -1.4335321302       -0.8501238564
 H         -6.2335804951        1.1144672770        0.5667591326
 H         -5.4891307071        1.0520965696       -1.0842033138
 H         -4.0962906875        0.1886800271        1.5513080994
