  62
        -98.94361679
 C          1.8001281500       -0.8774436340       -0.8147373359
 C          1.9960739589       -0.4002503413        0.5036996590
 C          3.3916298304       -0.3573557250        0.9645531870
 C          4.3710106144       -0.7822135493        0.1455503440
 C          5.8363282159       -0.7402226454        0.4674751869
 C          6.4705916248        0.5745382972       -0.0077608042
 C          5.6952875407        1.8226287343        0.4146483695
 H          6.2507585361        2.6892951737        0.0494742101
 H          4.7254755344        1.8279045383       -0.0883634968
 C          5.4798630646        1.9540255230        1.9288470911
 H          5.6952150960        2.9830273058        2.2244322576
 H          6.1827054410        1.3110211954        2.4598884516
 C          4.0564749769        1.6447289170        2.3967003866
 H          3.3417145304        2.2185951476        1.8012440661
 H          3.9603101654        1.9774804690        3.4336421733
 C          3.6447960610        0.1678628491        2.3495793722
 H          4.3923916449       -0.4396384675        2.8634424227
 H          2.6948952351        0.0713666212        2.8831488379
 H          7.4889999294        0.6274053677        0.3814718949
 H          6.5245803016        0.5582315489       -1.0988393554
 H          5.9709190226       -0.8533264412        1.5413400048
 H          6.3246012917       -1.5733483564       -0.0409029386
 O          4.1390925123       -1.2578402333       -1.1052851080
 C          2.8544878086       -1.3018342207       -1.6221986316
 O          2.7832782935       -1.7296975511       -2.7925749907
 O          1.0586456480       -0.0282655487        1.2556165127
 C          0.3971940451       -0.9341004618       -1.3914747566
 C         -0.2320871553        0.4370427549       -1.3470898699
 C          0.4902454637        1.5267718660       -1.8276661584
 C         -0.0451476230        2.7991209974       -1.7929383388
 C         -1.3154755613        3.0123823714       -1.2863256498
 C         -2.0486483956        1.9316497435       -0.8126813991
 C         -1.5066852252        0.6534341237       -0.8498613067
 H         -2.0927142451       -0.1726869934       -0.4858680259
 N         -3.3213160789        2.1214434190       -0.2624116369
 S         -4.5073110007        0.9537167962       -0.3614931250
 O         -4.4999373347        0.2888121436       -1.6438586131
 O         -5.7280075720        1.6546552569       -0.0230798271
 C         -4.1255285302       -0.2067461217        0.9340166202
 C         -3.6050589548        0.2553472352        2.1261641500
 C         -3.3363305074       -0.6552330391        3.1354247438
 C         -3.5970036323       -2.0029278409        2.9404750713
 C         -4.1268971283       -2.4502593727        1.7401835570
 C         -4.3955803117       -1.5449771177        0.7258291135
 H         -4.7979582172       -1.8495908048       -0.2275530578
 H         -4.3285711352       -3.4991745236        1.5904908554
 H         -3.3835343713       -2.7091441750        3.7274135813
 H         -2.9190121903       -0.3115205077        4.0681871835
 H         -3.4052346052        1.3071783590        2.2442406307
 H         -3.6887021173        3.0593523561       -0.3138952100
 H         -1.7331312879        4.0071343867       -1.2535882925
 H          0.5291746184        3.6343816452       -2.1651878308
 H          1.4830742077        1.3604139230       -2.2244195597
 H          0.5105730362       -1.2230526373       -2.4469240610
 C         -0.4137896959       -1.9971282400       -0.6798065030
 C         -1.5336406277       -2.6949169176       -1.3893509575
 C         -0.2585911276       -3.4267545447       -1.0992887068
 H         -0.2645856273       -4.1913609717       -0.3373287985
 H          0.4147361658       -3.6319946068       -1.9190392735
 H         -2.4150944921       -2.9570855786       -0.8242132952
 H         -1.7376936489       -2.4060525591       -2.4095622365
 H         -0.5265190380       -1.7953303692        0.3795009653
