  62
        -98.93948473
 C          2.3590071350        0.4596395800       -0.3302885969
 C          3.5594071877        0.9590210163        0.2352908101
 C          4.5025437915       -0.0446700348        0.7437003604
 C          4.1693929009       -1.3469995346        0.6855970967
 C          5.0502791359       -2.4784494676        1.1282355126
 C          5.9153883849       -2.9951753845       -0.0298488992
 C          6.6457694119       -1.8917178486       -0.7952356153
 H          7.2479930863       -2.3755968663       -1.5672258219
 H          5.9107269286       -1.2657593633       -1.3063010839
 C          7.5474360492       -1.0050800768        0.0749861790
 H          8.5015954236       -0.8662383602       -0.4377260130
 H          7.7580640965       -1.5056853780        1.0207246719
 C          6.9859064284        0.3902823216        0.3547409564
 H          6.6860943175        0.8598201924       -0.5855708304
 H          7.7863920354        0.9990874568        0.7834185869
 C          5.7978469276        0.4501669077        1.3232349082
 H          6.0420913623       -0.0910436644        2.2395884607
 H          5.6296241779        1.5002820912        1.5794614170
 H          6.6417329518       -3.7039991802        0.3718066736
 H          5.2708504898       -3.5294751355       -0.7315868589
 H          5.6835380451       -2.1401410172        1.9460363401
 H          4.4136967742       -3.2897873859        1.4851307071
 O          2.9960151803       -1.7868857644        0.1669377287
 C          2.0648689922       -0.9036974667       -0.3613530340
 O          1.0481062652       -1.4588291797       -0.8188380766
 H         -1.0250764765        0.1036664314       -1.0396985375
 C         -0.9697958744        0.7313827026       -0.1641805796
 C          0.1654205587        1.4937404735        0.0632337135
 C          0.2227218272        2.2768571318        1.2126948581
 C         -0.8292683109        2.2924344818        2.1091539225
 C         -1.9547021431        1.5181073947        1.8871686988
 C         -2.0183618137        0.7272441900        0.7478166162
 N         -3.1375225094       -0.1007854065        0.5301036890
 S         -4.6686730836        0.5945339768        0.6703821588
 O         -4.7624260952        1.7730608411       -0.1642753598
 O         -4.9580570068        0.7925606563        2.0682667513
 C         -5.6892014921       -0.7124388625        0.0199726250
 C         -6.0268699943       -1.7633611218        0.8511564615
 C         -6.7957350811       -2.7981698074        0.3431501597
 C         -7.2107378754       -2.7654627650       -0.9799656352
 C         -6.8653582203       -1.7029601302       -1.8014020645
 C         -6.0953743637       -0.6652573663       -1.2998625317
 H         -5.8107250748        0.1844098048       -1.8997136494
 H         -7.1920682113       -1.6791665734       -2.8285919808
 H         -7.8094112284       -3.5719915133       -1.3729216721
 H         -7.0683874573       -3.6249496361        0.9790244622
 H         -5.6886197665       -1.7422055270        1.8738918176
 H         -3.0586827009       -0.6029241958       -0.3443552209
 H         -2.7821244065        1.5203581221        2.5778993283
 H         -0.7733754795        2.9099110604        2.9932957293
 H          1.1087597832        2.8682630205        1.3978395932
 C          1.3536774530        1.4659668477       -0.8665946896
 H          1.8565562865        2.4401588046       -0.7986644010
 C          0.9928975358        1.2065646992       -2.3141608298
 C          0.2860780751        2.2743592587       -3.0927768972
 C          1.7178565226        1.9505410373       -3.3937119683
 H          1.9474108760        1.4308971607       -4.3119088732
 H          2.4762428598        2.6577785121       -3.0913768329
 H          0.0704009289        3.2010375761       -2.5823610738
 H         -0.4693049755        1.9806882925       -3.8055344411
 H          0.7331372938        0.1748503333       -2.5160876333
 O          3.8295277441        2.1878026854        0.3082143412
