  62
        -98.94802887
 C          1.2670455994        1.0431846499       -0.0484105515
 C          1.6286878726       -0.0220622977        0.8099986914
 C          2.6763392383       -0.9191165734        0.3128690812
 C          3.1781570821       -0.7369544798       -0.9219756073
 C          4.2276458654       -1.5877339037       -1.5846938339
 C          5.6675260568       -1.2152649013       -1.2047069505
 C          6.0895490797       -1.6058111730        0.2123031316
 H          5.8686794176       -2.6608929018        0.3772027442
 H          7.1734677046       -1.4870978861        0.2674063535
 C          5.4435302562       -0.7627803080        1.3205019933
 H          5.0322473172        0.1522925407        0.8883802653
 H          6.2071152625       -0.4624285275        2.0414019442
 C          4.3412364261       -1.4794174175        2.1003445911
 H          3.9303783788       -0.7808016113        2.8334923062
 H          4.7667837271       -2.3261978844        2.6432897136
 C          3.1840874352       -1.9893575037        1.2311091315
 H          3.4967445363       -2.8633815611        0.6595885402
 H          2.3603893503       -2.2819671706        1.8873929450
 H          6.3305408949       -1.7207931543       -1.9105975011
 H          5.7960951222       -0.1389394380       -1.3401660508
 H          4.0463508757       -2.6379907889       -1.3529312062
 H          4.1068128282       -1.4458094785       -2.6609913060
 O          2.7584959376        0.2617028617       -1.7437745157
 C          1.8019635139        1.1784308246       -1.3290393443
 O          1.5198972771        2.0438243514       -2.1798776407
 O          1.0955376612       -0.2158537516        1.9362899613
 C          0.2005379358        2.0212715007        0.4052486892
 C         -1.0302662760        1.9075349241       -0.4613400543
 C         -1.8059900962        2.9971355830       -0.8374689747
 C         -2.9430403275        2.8132518011       -1.6054675097
 C         -3.3477975263        1.5473739049       -1.9888281499
 C         -2.5814435039        0.4504109986       -1.6120902795
 C         -1.4317758727        0.6414565408       -0.8637659427
 H         -0.8293347006       -0.2158465370       -0.6066459843
 N         -2.9507574185       -0.8564135777       -1.9649404138
 S         -2.6820030254       -2.0988361106       -0.8766733284
 O         -1.2878385900       -2.4660487278       -0.8630954675
 O         -3.6005450092       -3.1380396451       -1.2927468387
 C         -3.1961376423       -1.4386249660        0.6994219851
 C         -2.2752492978       -1.1183380175        1.6752270908
 C         -2.7257656910       -0.5541419279        2.8591480194
 C         -4.0785892936       -0.3220199278        3.0477861862
 C         -4.9932122820       -0.6587336798        2.0608768911
 C         -4.5496271890       -1.2191833257        0.8751488655
 H         -5.2294354161       -1.5048733420        0.0889246586
 H         -6.0461027378       -0.4829801522        2.2113015771
 H         -4.4210246339        0.1210534648        3.9696195445
 H         -2.0059772708       -0.2957858355        3.6196434713
 H         -1.2243572916       -1.2990339271        1.5102240147
 H         -3.8469719113       -0.9396218697       -2.4215213664
 H         -4.2391476454        1.4067928291       -2.5805242362
 H         -3.5300454793        3.6692493918       -1.9014823923
 H         -1.5159233487        3.9904606367       -0.5368648816
 H         -0.0796592402        1.6937048514        1.4187594684
 C          0.7564342432        3.4277469665        0.4857189299
 C          0.2376530021        4.3899904533        1.5111945320
 C          1.6068569922        3.8009030044        1.6620131174
 H          2.4658732125        4.4339231612        1.4976006707
 H          1.7603070514        3.0473321357        2.4208632509
 H          0.1581635623        5.4331661123        1.2447891112
 H         -0.5376646030        4.0422577556        2.1768765764
 H          1.0463009631        3.8153998344       -0.4842654919
