  62
        -98.94426752
 C          1.9604329254       -0.7903320145       -0.4209636249
 C          2.3014462906        0.3737695263        0.3095997617
 C          3.6499838667        0.9046537473        0.0677547589
 C          4.4559269603        0.3126781011       -0.8315700798
 C          5.8436204611        0.7560001298       -1.2077830526
 C          6.9403033831        0.2524913590       -0.2593392048
 C          6.9748466730        0.9277439030        1.1122505784
 H          6.9929352428        2.0103519310        0.9826582577
 H          7.9154652282        0.6411147342        1.5867518707
 C          5.8153646530        0.5371352835        2.0392313728
 H          6.2050947359        0.3116886363        3.0344677429
 H          5.3425694538       -0.3743565008        1.6665073265
 C          4.7456890865        1.6165475532        2.2055194199
 H          5.1784013114        2.4881434057        2.7016929123
 H          3.9561411394        1.2204876639        2.8491709584
 C          4.1003381084        2.0738335423        0.8907593347
 H          4.7967177444        2.6925375875        0.3251400737
 H          3.2171451395        2.6711947667        1.1305104238
 H          7.9003374825        0.4270024969       -0.7505372130
 H          6.8238299306       -0.8261760294       -0.1316890703
 H          5.8786648606        1.8445867430       -1.2613158608
 H          6.0384328483        0.3528215408       -2.2039575596
 O          4.0761817499       -0.7824516499       -1.5418858820
 C          2.8348720156       -1.3630049490       -1.3486740859
 O          2.6263148655       -2.3706585998       -2.0533732949
 O          1.5348764902        0.9486409109        1.1261414885
 C          0.6005818280       -1.4547552081       -0.2707085094
 C         -0.4408238703       -0.5600838647       -0.8967132446
 C         -0.6579422926       -0.6212792784       -2.2700439535
 C         -1.5887214307        0.2017965163       -2.8768903985
 C         -2.3187526287        1.1082961645       -2.1272460433
 C         -2.1002270532        1.1832330532       -0.7588310849
 C         -1.1760543684        0.3462993943       -0.1484946499
 H         -1.0071578756        0.4256190311        0.9136344481
 N         -2.8496935775        2.1006416483        0.0117172983
 S         -4.4933634751        1.7837702257        0.0902133439
 O         -5.0862016827        2.0581216650       -1.1938645826
 O         -4.9924368203        2.5565010907        1.2048751700
 C         -4.5852258554        0.0391005205        0.4486219782
 C         -4.6250460976       -0.8637084478       -0.5947779338
 C         -4.6011162775       -2.2189320819       -0.3070578937
 C         -4.5375707173       -2.6453876344        1.0103645853
 C         -4.5021593174       -1.7254809563        2.0471167043
 C         -4.5185083523       -0.3691948698        1.7658016800
 H         -4.4948567509        0.3786979608        2.5423499260
 H         -4.4577934612       -2.0609254977        3.0709701445
 H         -4.5157787740       -3.7009479689        1.2312278397
 H         -4.6282589217       -2.9362236968       -1.1115882303
 H         -4.6789484315       -0.4929801776       -1.6050579138
 H         -2.4818875815        2.2140155252        0.9462145746
 H         -3.0570400035        1.7516165619       -2.5783893476
 H         -1.7473259120        0.1392767541       -3.9429007249
 H         -0.0784254350       -1.3200491133       -2.8574270455
 H          0.6522274693       -2.3768046332       -0.8643938260
 C          0.2924703043       -1.8164604089        1.1679165470
 C         -0.8836853776       -2.6983029982        1.4588972014
 C          0.5089663116       -3.2225733647        1.6358137984
 H          0.8788781364       -3.3794109616        2.6380445341
 H          0.8825596269       -3.9372714386        0.9171221016
 H         -1.4750509366       -2.4963505429        2.3385772238
 H         -1.4587521114       -3.0519407453        0.6166488498
 H          0.5167144165       -1.0231561821        1.8695259481
