  62
        -98.94223995
 C          1.8806864261        1.2639326185       -0.0363598802
 C          3.0599095172        1.1856801137        0.7512521940
 C          4.2292859002        0.5663835494        0.1197453476
 C          4.1460631712        0.1309338230       -1.1500078987
 C          5.2578337502       -0.4916707558       -1.9500479364
 C          5.4384676478       -1.9960151477       -1.7055034715
 C          6.0505280489       -2.3661433171       -0.3539060510
 H          6.3218702221       -3.4225604810       -0.4037842368
 H          6.9710978371       -1.8006178245       -0.2061168268
 C          5.1149536356       -2.1535017809        0.8446007070
 H          4.0849162222       -2.0606792807        0.4919554602
 H          5.1507223277       -3.0306597147        1.4946756334
 C          5.4539700476       -0.9372195187        1.7065561050
 H          6.4303567095       -1.0808823510        2.1746188926
 H          4.7070620162       -0.8624760189        2.5011051082
 C          5.4693609121        0.3936889253        0.9434255073
 H          5.4995920154        1.2066932799        1.6729107498
 H          6.3563375150        0.4555150248        0.3130448583
 H          6.0924684766       -2.3777022308       -2.4930085253
 H          4.4684388260       -2.4872380584       -1.8126864012
 H          6.1939998180        0.0266178579       -1.7403311131
 H          5.0052250425       -0.3419526498       -3.0020541336
 O          3.0051404441        0.2329422963       -1.8783677096
 C          1.8415409073        0.7765186106       -1.3434249458
 O          0.8803288204        0.7555366083       -2.1352305366
 O          3.1326667013        1.6282221857        1.9285796446
 C          0.6762802290        1.9224245994        0.6140026354
 C         -0.2799965211        0.9147692951        1.1977615531
 C         -0.7491522029        1.0497149329        2.4992846661
 C         -1.6517238027        0.1396571232        3.0225953471
 C         -2.1077904248       -0.9197443871        2.2588937380
 C         -1.6443793204       -1.0636280126        0.9572782695
 C         -0.7368554697       -0.1524432027        0.4363214147
 H         -0.3843190233       -0.2685527875       -0.5779819351
 N         -2.1089192024       -2.1325298589        0.1627619484
 S         -3.7651669993       -2.2173809892       -0.0847039294
 O         -4.4017365381       -2.6254634296        1.1421789846
 O         -3.9421610283       -3.0945126328       -1.2190516288
 C         -4.2488471696       -0.5528891602       -0.5006209841
 C         -4.1304989333       -0.1444078373       -1.8142582361
 C         -4.4409684743        1.1659561521       -2.1395993312
 C         -4.8476134495        2.0449259603       -1.1473915223
 C         -4.9579478165        1.6200699442        0.1674398110
 C         -4.6576291701        0.3083248630        0.4981301710
 H         -4.7391727123       -0.0623202031        1.5064043877
 H         -5.2732095443        2.3065456087        0.9363581211
 H         -5.0777358176        3.0673205732       -1.4011253908
 H         -4.3551085700        1.4977103022       -3.1617696906
 H         -3.8094743969       -0.8580724377       -2.5563191153
 H         -1.6336910083       -2.1904688621       -0.7271786052
 H         -2.8161797297       -1.6343629480        2.6458431580
 H         -2.0036183976        0.2552274035        4.0363278437
 H         -0.3923585237        1.8691579273        3.1057854286
 H          1.1004145734        2.4951670635        1.4538211702
 C         -0.0190032080        2.9217006051       -0.3024447249
 C         -1.3373120377        2.6715006803       -0.9637685292
 C         -1.2443329401        3.6509186317        0.1648185517
 H         -1.3321557612        4.7044908325       -0.0514414625
 H         -1.6646985090        3.3546179975        1.1138181175
 H         -1.4679674843        3.0404488213       -1.9692403215
 H         -1.8321695973        1.7305898944       -0.7834607487
 H          0.7006558080        3.4976987199       -0.8764513982
