  62
        -98.93667933
 C         -1.7073455262       -0.4188439920       -0.5031904922
 C         -2.9496498453       -0.9856751834       -0.8725139451
 C         -4.0921643916       -0.6687175679       -0.0026963279
 C         -3.8959832992        0.1094045552        1.0775318305
 C         -4.9694335868        0.5835983446        2.0154944774
 C         -5.7562185577        1.7431382398        1.3716936022
 C         -7.2214760299        1.4230154280        1.0756819925
 H         -7.7858377498        1.4455241797        2.0103699074
 H         -7.6083757363        2.2210555293        0.4383670124
 C         -7.4871106404        0.0736226930        0.4010940685
 H         -8.5099802945        0.1049069772        0.0196387361
 H         -7.4586222671       -0.7219453454        1.1472691389
 C         -6.5437587971       -0.2989679535       -0.7500037057
 H         -6.1078325497        0.5957177310       -1.1950924159
 H         -7.1346995362       -0.7854909094       -1.5287512001
 C         -5.4183644295       -1.2776461173       -0.3653166690
 H         -5.7592289620       -1.9238689250        0.4485882046
 H         -5.2050951460       -1.9194936143       -1.2254370604
 H         -5.7228771958        2.6141453392        2.0279006219
 H         -5.2509438052        2.0274533710        0.4463364589
 H         -5.6348142039       -0.2412754889        2.2607669068
 H         -4.4780225098        0.9188504098        2.9291378902
 O         -2.6846681838        0.6284900221        1.4048063772
 C         -1.5607704396        0.3839091421        0.6280667567
 O         -0.5213703983        0.9242110044        1.0457458634
 H          2.2149570668       -0.4569622614       -1.6853441377
 C          1.9495957061       -1.1247797059       -0.8799164035
 C          0.6132922035       -1.3581419322       -0.5860146652
 C          0.3116328324       -2.2417780953        0.4458690163
 C          1.3135834256       -2.8412892086        1.1857664223
 C          2.6444828794       -2.5876974908        0.9034166641
 C          2.9580240011       -1.7324317309       -0.1421474755
 N          4.3199564270       -1.4757727994       -0.4266810525
 S          5.0966531778       -0.4470229452        0.6466883229
 O          6.4635781640       -0.3525499907        0.1870241511
 O          4.8992135843       -0.9413401582        1.9840841936
 C          4.2731385154        1.1178093620        0.4154274138
 C          4.8650333057        2.0776610273       -0.3829059370
 C          4.1755653050        3.2506925334       -0.6423845174
 C          2.9033217382        3.4338889875       -0.1200066428
 C          2.3208450782        2.4594052710        0.6756693192
 C          3.0123624628        1.2899080283        0.9505166306
 H          2.5752532200        0.5202427952        1.5657832669
 H          1.3221949473        2.5739681873        1.0668398728
 H          2.3595977672        4.3407244119       -0.3349364323
 H          4.6254526053        4.0136551680       -1.2573562345
 H          5.8511019411        1.8882020930       -0.7756878841
 H          4.4715926509       -1.1344566356       -1.3665839855
 H          3.4390709777       -3.0263567007        1.4841873639
 H          1.0558982822       -3.5120779790        1.9916626416
 H         -0.7256302806       -2.4462501164        0.6736474870
 C         -0.4931890145       -0.6936059648       -1.3685287299
 H         -0.8394186893       -1.4003574672       -2.1383200678
 C         -0.0403084826        0.5849393251       -2.0476373478
 C          0.5163041993        0.5589500582       -3.4393391410
 C         -0.8490358513        1.1228070724       -3.1884560689
 H         -0.9915220611        2.1902429026       -3.2631143012
 H         -1.7065254285        0.5449388000       -3.5015834544
 H          0.5813897218       -0.3970500363       -3.9371351215
 H          1.3129122988        1.2440633194       -3.6887523212
 H          0.3729714529        1.3005711092       -1.3453469909
 O         -3.0943913120       -1.7277348578       -1.8822419906
