  62
        -98.94441991
 C          2.4325028481        1.0245354267        0.0057902374
 C          2.8692318425        0.1563511793        1.0419265074
 C          3.3237107178       -1.1776926536        0.6356315519
 C          3.3212873320       -1.4998843901       -0.6700556829
 C          3.7018173435       -2.8406810681       -1.2259335211
 C          2.4754404225       -3.7548608442       -1.3550626191
 C          1.6141066443       -3.8211470437       -0.0933824884
 H          1.1426641837       -2.8479148330        0.0686080831
 H          0.8058190327       -4.5287996639       -0.2923361172
 C          2.3702039449       -4.2491324493        1.1726451896
 H          1.7622914298       -4.9807310253        1.7088962766
 H          3.3028724155       -4.7423605722        0.8961449794
 C          2.6677832364       -3.1134707095        2.1536305469
 H          1.7509932223       -2.5505536930        2.3474814066
 H          2.9882822829       -3.5573043273        3.0998891187
 C          3.7565694278       -2.1243027269        1.7190541583
 H          4.6533896529       -2.6702388950        1.4199625862
 H          4.0034937869       -1.4996120829        2.5822826723
 H          1.8492083343       -3.3846364312       -2.1707224885
 H          2.8187773775       -4.7576007768       -1.6172037403
 H          4.1384062694       -2.6924256780       -2.2151822507
 H          4.4440311313       -3.3002507407       -0.5760712020
 O          2.9243807855       -0.6376361382       -1.6375865390
 C          2.4349328692        0.6233640894       -1.3297428534
 O          2.0570405760        1.2603401481       -2.3361611935
 O          2.8786413350        0.4900767824        2.2568485457
 C          1.8897717998        2.3746439431        0.4498664901
 C          0.3919828838        2.2696902278        0.6117963344
 C         -0.2216370480        2.4658318504        1.8431428537
 C         -1.5868120146        2.2871841966        1.9884746360
 C         -2.3629904935        1.8871579692        0.9146678565
 C         -1.7561772334        1.6877863977       -0.3176166876
 C         -0.3967892228        1.9005931605       -0.4688149486
 H          0.0633695870        1.7315943644       -1.4316214246
 N         -2.5314149781        1.1910997969       -1.4000169500
 S         -2.6907926138       -0.4892095411       -1.3028897415
 O         -1.4968917030       -1.1042727003       -0.7643899634
 O         -3.0979108669       -0.9248513429       -2.6213101402
 C         -4.0433418725       -0.6843134762       -0.1635794410
 C         -3.8008752275       -1.1515507887        1.1128817737
 C         -4.8635380768       -1.2682469033        1.9954710492
 C         -6.1413590460       -0.9164730018        1.5878076014
 C         -6.3681012930       -0.4502278252        0.3011393845
 C         -5.3103053953       -0.3311260334       -0.5859751871
 H         -5.4385215421        0.0211542450       -1.5958338763
 H         -7.3632249797       -0.1784272340       -0.0119578183
 H         -6.9654782820       -1.0067088134        2.2777135845
 H         -4.6886574048       -1.6301753945        2.9958616862
 H         -2.7895252593       -1.4084420415        1.3854585380
 H         -2.1096102170        1.4055321056       -2.2948716949
 H         -3.4233901373        1.7258750304        1.0212636096
 H         -2.0484436190        2.4445064736        2.9510753130
 H          0.3847027291        2.7354577527        2.6953786573
 H          2.3235955747        2.5487153413        1.4438280798
 C          2.2704580450        3.5319580057       -0.4499390295
 C          2.2429759893        4.9222242911        0.1086854096
 C          3.5533644713        4.2638364737       -0.1996337822
 H          4.1210345767        4.6093846227       -1.0503755849
 H          4.1647885482        3.9312337366        0.6264570227
 H          1.9082414134        5.7254553078       -0.5293477264
 H          1.9674576129        5.0389659636        1.1457186972
 H          1.9708243034        3.3955693716       -1.4806810158
