  62
        -98.93469322
 C         -0.5398974290       -1.7555062493        0.0378746877
 C         -1.0125101494       -0.6472198772       -0.7024243574
 C         -2.3540395756       -0.1350645845       -0.3359804025
 C         -2.9566700200       -0.6128422641        0.7655606935
 C         -4.3134366418       -0.2660914167        1.3193706226
 C         -5.4692804689       -0.4741323809        0.3253430586
 C         -6.1365713999        0.8309421143       -0.1025752799
 H         -7.1358631426        0.6051528346       -0.4816250102
 H         -6.2557118109        1.4715181076        0.7733667672
 C         -5.3891906368        1.5923331309       -1.1942935428
 H         -5.4351495765        1.0211431139       -2.1242046604
 H         -5.9245185589        2.5296015173       -1.3642192351
 C         -3.9221003940        1.9194912693       -0.8948584221
 H         -3.7884083524        2.1549056197        0.1580597703
 H         -3.6742331657        2.8195132158       -1.4622309139
 C         -2.9237753858        0.8409636990       -1.3319288537
 H         -3.3617569157        0.2516437898       -2.1464607499
 H         -2.0419552741        1.3239837533       -1.7659088665
 H         -5.1033512679       -1.0073971191       -0.5528674937
 H         -6.2208104093       -1.1070942205        0.7996096211
 H         -4.4470344046       -0.9137683825        2.1878322511
 H         -4.3126624103        0.7616274056        1.6821328681
 O         -2.3673434957       -1.5510801510        1.5619874456
 C         -1.2066092085       -2.1936205092        1.1854310975
 O         -0.8638725894       -3.1224550117        1.9438176219
 H          1.8444176984       -0.1459813324       -0.8523286584
 C          2.3869322661       -0.7039010407       -0.1047324306
 C          1.9438878930       -1.9629631758        0.2764911388
 C          2.6573568805       -2.6653904203        1.2411614978
 C          3.7923844820       -2.1201582527        1.8130804942
 C          4.2262253228       -0.8606901185        1.4431033350
 C          3.5150818661       -0.1476196569        0.4823981319
 N          3.9336244052        1.1362868582        0.1171429562
 S          2.9472220245        2.2512953507       -0.6190138752
 O          2.7351768951        1.8990947012       -1.9996768284
 O          3.6330629328        3.5102590036       -0.4022833090
 C          1.3932939459        2.3098022087        0.2598410226
 C          0.3558559394        2.9533661482       -0.3832012569
 C         -0.8529754005        3.1097562584        0.2730541927
 C         -1.0130822734        2.5993045168        1.5510472560
 C          0.0349241307        1.9515003947        2.1831681437
 C          1.2564991289        1.8174327582        1.5414866402
 H          2.0800237370        1.3233395933        2.0307789573
 H         -0.0915535668        1.5488642656        3.1758023140
 H         -1.9574088932        2.7093622869        2.0606808994
 H         -1.6643440229        3.6243255218       -0.2148312185
 H          0.5149675750        3.3117358277       -1.3877458427
 H          4.6367872406        1.5607333481        0.7022253515
 H          5.1053223164       -0.4258810437        1.8933397072
 H          4.3391674032       -2.6757426510        2.5594936610
 H          2.3044829708       -3.6373277613        1.5524991145
 C          0.6987198079       -2.5589116312       -0.3316341840
 H          0.5496662686       -3.5458543538        0.1286330736
 C          0.8660741252       -2.7539384772       -1.8253628079
 C          1.6498847104       -3.9318971485       -2.3171409402
 C          0.1625783846       -3.8916253253       -2.4990673904
 H         -0.2347614275       -3.7357731513       -3.4907757187
 H         -0.4439144588       -4.5400345601       -1.8830709196
 H          2.2785172176       -3.8044752682       -3.1850793962
 H          2.0507521665       -4.6107146018       -1.5794927568
 H          0.9518937891       -1.8270108727       -2.3769577532
 O         -0.3817769195       -0.1062879496       -1.6490553261
