  62
        -98.93729084
 C         -1.4733092392       -1.6258994769       -0.2183123243
 C         -1.3768945630       -0.2140449205       -0.2350506446
 C         -2.6465427767        0.5340665488       -0.3721067218
 C         -3.8031361094       -0.1487681222       -0.4403674169
 C         -5.1984425900        0.4075768698       -0.5279568405
 C         -5.7069265794        0.9379528513        0.8252332197
 C         -4.6729145309        1.6953251293        1.6561730644
 H         -5.1073494825        1.8743053938        2.6434467224
 H         -3.7951573415        1.0623545877        1.8004948563
 C         -4.2389284265        3.0438659210        1.0868454647
 H         -5.1056156299        3.7080025787        1.0459820178
 H         -3.5203598577        3.4776053153        1.7868025579
 C         -3.5976676736        3.0073869768       -0.3002366589
 H         -3.1878514143        4.0029982017       -0.4939621006
 H         -4.3488703920        2.8289626104       -1.0648900627
 C         -2.4375661537        2.0269210531       -0.4499009582
 H         -1.9539051452        2.2095915933       -1.4171119450
 H         -1.6750219684        2.2542992149        0.3031212135
 H         -6.0400162339        0.0812983662        1.4161616631
 H         -6.5718495149        1.5781037590        0.6442247911
 H         -5.8470002034       -0.4117918908       -0.8455773927
 H         -5.2410497463        1.1780110662       -1.2923798104
 O         -3.8508507768       -1.5105222292       -0.3767575375
 C         -2.7077119205       -2.2768153376       -0.2628424493
 O         -2.9160027877       -3.5057754262       -0.2031215562
 O         -0.2939464679        0.4156561390       -0.1351698780
 C         -0.2424249265       -2.5072302870       -0.0907090169
 C          0.6800135021       -1.9458524219        0.9619177791
 C          0.2552786036       -1.9403650521        2.2880541383
 C          1.0530496871       -1.4095337650        3.2829001597
 C          2.2877104378       -0.8660354786        2.9747899198
 C          2.7211278867       -0.8693879111        1.6543399211
 C          1.9240152894       -1.4166864371        0.6589259846
 H          2.2801180879       -1.3992641903       -0.3567323186
 N          3.9734568672       -0.3382597256        1.3183603305
 S          4.2587932717        0.3767241265       -0.1605282006
 O          4.3432023752       -0.6292224160       -1.1907964697
 O          5.4688846665        1.1443355495        0.0575611582
 C          2.9149931212        1.5001751224       -0.4917710808
 C          2.3162458027        1.4865277497       -1.7327689641
 C          1.3195830052        2.4076099536       -2.0070978952
 C          0.9400123307        3.3213848516       -1.0386714134
 C          1.5484485244        3.3193910780        0.2059299448
 C          2.5482553599        2.4035563484        0.4842782685
 H          3.0413098179        2.3842191724        1.4429227221
 H          1.2423486993        4.0259016910        0.9612044120
 H          0.1596617239        4.0352537661       -1.2522939121
 H          0.8381887920        2.4021219664       -2.9727549790
 H          2.6341143069        0.7523905939       -2.4559259441
 H          4.4566054249        0.1359031222        2.0663902151
 H          2.9102777246       -0.4425239658        3.7481890336
 H          0.7090935867       -1.4104672723        4.3063798937
 H         -0.7173740083       -2.3505356125        2.5256735036
 H         -0.6208790829       -3.4778502270        0.2707970343
 C          0.4620372266       -2.7793550401       -1.4112802917
 C         -0.3106648089       -2.8885744972       -2.6907203035
 C          0.6154064333       -1.7319521948       -2.4709106678
 H          1.5437263740       -1.7030583549       -3.0237295778
 H          0.1910869633       -0.7595000680       -2.2770629604
 H         -0.0256679981       -3.6523153882       -3.3986371230
 H         -1.3751359640       -2.7085042384       -2.6477071437
 H          1.2915308752       -3.4704596679       -1.2912227001
