  62
        -98.94184700
 C         -1.1832519062       -1.5461381794        0.4963790421
 C         -2.1447498267       -1.2104922639       -0.4853416055
 C         -3.2109789961       -0.2870655103       -0.0622868893
 C         -3.2203009476        0.1832550038        1.1965478370
 C         -4.2233281861        1.1052419645        1.8432236450
 C         -4.6781072270        2.3302481424        1.0373249751
 C         -3.6220913740        2.9222325684        0.0917759891
 H         -3.5604578516        3.9994498967        0.2606107017
 H         -2.6343131048        2.5099849044        0.3113821772
 C         -3.9536338478        2.7005393481       -1.3862702333
 H         -3.3954810332        3.4284269464       -1.9802927021
 H         -5.0173953155        2.8973375281       -1.5395527394
 C         -3.6159895183        1.3157264163       -1.9365965937
 H         -2.5296188416        1.1976096436       -1.9902267336
 H         -3.9953622375        1.2582707381       -2.9598883239
 C         -4.1760067894        0.1296238424       -1.1339714398
 H         -5.1591382005        0.3561375596       -0.7285505041
 H         -4.2635053504       -0.7235591807       -1.8121052845
 H         -5.5657236048        2.0767465717        0.4588501116
 H         -4.9806671433        3.0886482042        1.7614761545
 H         -5.1011352798        0.5145179577        2.1213766588
 H         -3.7479829014        1.4351161782        2.7701286637
 O         -2.2750765569       -0.1711060751        2.1125049715
 C         -1.2204806406       -1.0026549388        1.7782184894
 O         -0.3931394064       -1.1814355315        2.6969332281
 O         -2.1180677927       -1.6575405430       -1.6615123268
 C          0.0013445193       -2.4183708198        0.1273080489
 C          0.8205627667       -1.7455007355       -0.9497686682
 C          1.4822587694       -2.4378853802       -1.9564088061
 C          2.2341383327       -1.7532624870       -2.8960671267
 C          2.3638286172       -0.3767232763       -2.8432553974
 C          1.7105421374        0.3235931730       -1.8360018800
 C          0.9478404074       -0.3647736482       -0.9076978659
 H          0.4228987015        0.1950049723       -0.1496542630
 N          1.8042419803        1.7197786374       -1.7277921134
 S          1.8547965384        2.4136583424       -0.2055651640
 O          0.5481876293        2.4006722591        0.4029891334
 O          2.4289773471        3.7230885531       -0.4330075111
 C          3.0096162789        1.4033885209        0.7053079278
 C          2.5838510026        0.5430316630        1.6959218638
 C          3.5186262599       -0.2636578593        2.3274040096
 C          4.8535255532       -0.1973303126        1.9622496638
 C          5.2677792141        0.6801415155        0.9710735443
 C          4.3388388208        1.4852535421        0.3342777244
 H          4.6217102411        2.1879328673       -0.4326398054
 H          6.3076264369        0.7352629836        0.6923023651
 H          5.5736479621       -0.8309849345        2.4553722900
 H          3.1854528806       -0.9417486390        3.0971527447
 H          1.5401781143        0.4998386917        1.9671581874
 H          2.4527739274        2.1577823976       -2.3650037741
 H          2.9527322582        0.1523430357       -3.5764236126
 H          2.7340807793       -2.3017877237       -3.6797184203
 H          1.4013443886       -3.5112317662       -2.0103736774
 H          0.6267624627       -2.4791079825        1.0312690571
 C         -0.4506225529       -3.8148359126       -0.2468385489
 C          0.4172617236       -4.9981691858        0.0564516021
 C         -0.8340301048       -4.7647072166        0.8467578945
 H         -1.6777273896       -5.4195744202        0.6893700500
 H         -0.7409687709       -4.4110136459        1.8636373345
 H          0.4314483661       -5.8197361273       -0.6438061369
 H          1.3628015382       -4.8147699128        0.5440739439
 H         -1.0434937402       -3.8295386443       -1.1537392649
