  62
        -98.94576062
 C         -2.5006181488       -0.0500784786       -0.5630573453
 C         -2.4620032109       -0.8368348884        0.6130978231
 C         -1.9858049870       -2.2147447822        0.4450183251
 C         -1.5595625391       -2.6323068328       -0.7601012348
 C         -1.0169516358       -3.9979801518       -1.0838133949
 C          0.4632813174       -4.1737537825       -0.7169167041
 C          0.7496272116       -4.3464048098        0.7757558772
 H          0.0863791643       -5.1079085221        1.1882096675
 H          1.7715352913       -4.7213159179        0.8618891582
 C          0.6322420791       -3.0541602117        1.5955587533
 H          0.6904214884       -2.1912920375        0.9284892631
 H          1.4798160138       -2.9850841693        2.2823315016
 C         -0.6355367824       -2.9442740628        2.4424210266
 H         -0.6420787702       -1.9600548214        2.9176874018
 H         -0.6181581819       -3.7019718539        3.2300950835
 C         -1.9432422990       -3.0965200752        1.6574438724
 H         -2.0885555183       -4.1376197498        1.3688591471
 H         -2.7667922349       -2.7950777742        2.3101393551
 H          1.0181642215       -3.3101554444       -1.0931719466
 H          0.8256659218       -5.0611952388       -1.2416992416
 H         -1.1240393663       -4.1264786498       -2.1631717140
 H         -1.6132847374       -4.7609557705       -0.5817820796
 O         -1.5930036758       -1.8389113875       -1.8647101596
 C         -2.0488011888       -0.5345054193       -1.7904523020
 O         -2.0212965893        0.0819950120       -2.8778628784
 O         -2.8163569826       -0.4210567106        1.7476821759
 C         -2.8988254829        1.4166727386       -0.4922140043
 C         -1.8466922831        2.1125261959        0.3381113430
 C         -2.1031086726        2.8027680675        1.5142055969
 C         -1.0553353951        3.3097172675        2.2653761861
 C          0.2572824267        3.1207989266        1.8752033191
 C          0.5214764924        2.4508942866        0.6843214260
 C         -0.5290803488        1.9834032541       -0.0850781498
 H         -0.3159027851        1.4681745480       -1.0119487848
 N          1.8374288032        2.2425015092        0.2402065472
 S          2.1557017636        0.8443783877       -0.6564646606
 O          1.9760396003        1.1528358225       -2.0543579903
 O          1.4069266643       -0.2759679864       -0.1382706862
 C          3.8933397002        0.6277977442       -0.3172257161
 C          4.8042741636        1.4350710796       -0.9726658287
 C          6.1532339947        1.2873787443       -0.6918238017
 C          6.5666126063        0.3404785200        0.2339183871
 C          5.6411099611       -0.4637954988        0.8815772345
 C          4.2899302677       -0.3199798052        0.6067668705
 H          3.5334496156       -0.9263390243        1.0791186089
 H          5.9648658523       -1.2018148593        1.5975792032
 H          7.6171700388        0.2263768071        0.4494934114
 H          6.8757147931        1.9085569424       -1.1960374949
 H          4.4358527623        2.1479638970       -1.6918459430
 H          2.5312427445        2.4048644833        0.9568747296
 H          1.0717266868        3.4856571337        2.4822573669
 H         -1.2652955243        3.8377466557        3.1832325581
 H         -3.1182407573        2.9248710947        1.8539961599
 H         -2.8347472367        1.7993908531       -1.5213404518
 C         -4.3120295396        1.5948737197        0.0154379899
 C         -5.0631820801        2.8517848741       -0.3031406706
 C         -5.4454189803        1.5622361691       -0.9635282878
 H         -6.3666392901        1.0828814647       -0.6685174011
 H         -5.1969912230        1.4258678947       -2.0063136520
 H         -5.7265613540        3.2602092495        0.4438962903
 H         -4.5582657403        3.5958421915       -0.9006365381
 H         -4.4722000435        1.1303311857        0.9807634408
