  62
        -98.93724648
 C         -1.8550006392       -0.4563134869       -0.8988361565
 C         -2.2542322481       -0.0518833566        0.3949827923
 C         -3.7035274991       -0.0827391253        0.6820251097
 C         -4.5478026878       -0.4933420659       -0.2827846355
 C         -6.0506710331       -0.5760135065       -0.2353644710
 C         -6.7247410765        0.7994736770       -0.3613281063
 C         -6.0934081546        1.9029787992        0.4831790238
 H         -5.0427780596        2.0082082629        0.2070838737
 H         -6.5916969426        2.8419658257        0.2279462293
 C         -6.2051280289        1.7104259815        1.9937076098
 H         -7.2596462498        1.6342765010        2.2681575326
 H         -5.8038961298        2.6109636012        2.4655487097
 C         -5.4635340566        0.5027423199        2.5714105241
 H         -6.0154393334       -0.4172666454        2.3983705872
 H         -5.4189757588        0.6371881840        3.6561498320
 C         -4.0231321390        0.3505193626        2.0925614117
 H         -3.4920303512        1.2967974468        2.2452916956
 H         -3.5136256251       -0.3716515456        2.7420269510
 H         -7.7782401224        0.6922093909       -0.0973329877
 H         -6.6689907890        1.1079637516       -1.4081767550
 H         -6.3689611082       -1.0815946393        0.6714491722
 H         -6.3569470331       -1.1917676974       -1.0840472347
 O         -4.1128518117       -0.8757939149       -1.5188295660
 C         -2.7751238410       -0.8716967703       -1.8591123920
 O         -2.5327286018       -1.2577457435       -3.0216125147
 O         -1.4425476708        0.3232006202        1.2809648699
 C         -0.3857990847       -0.4524163968       -1.2744074155
 C          0.4139291885       -1.3295138684       -0.3411650833
 C         -0.1205400494       -2.5412286998        0.0888241601
 C          0.5911853553       -3.3677845113        0.9357939841
 C          1.8632139535       -3.0172070063        1.3526423662
 C          2.4152610325       -1.8208948477        0.9140163275
 C          1.6892995970       -0.9827611897        0.0782578530
 H          2.1365099678       -0.0589707008       -0.2491502118
 N          3.7013782051       -1.4334621647        1.3185655986
 S          4.7462233013       -0.7413285566        0.2100303632
 O          4.5212526519       -1.2474937759       -1.1237466301
 O          6.0660461388       -0.9703760450        0.7599422896
 C          4.4008680539        1.0039259460        0.2739310728
 C          4.5197739845        1.7473284764       -0.8835577591
 C          4.3056961969        3.1159558933       -0.8279074470
 C          3.9773475466        3.7139233279        0.3788407293
 C          3.8625978371        2.9529466689        1.5324295300
 C          4.0806723728        1.5853022855        1.4847571306
 H          3.9964655467        0.9653186209        2.3615346864
 H          3.6033139012        3.4209154097        2.4684926742
 H          3.8082828891        4.7784403559        0.4198133719
 H          4.3942330615        3.7084548960       -1.7248445808
 H          4.7640732794        1.2400521069       -1.8032814714
 H          4.1768625048       -2.0957257205        1.9141707536
 H          2.4232279472       -3.6641359315        2.0108755659
 H          0.1562596079       -4.2985882737        1.2681183374
 H         -1.1096068809       -2.8246294720       -0.2454026968
 H         -0.3276808392       -0.8939620997       -2.2810750484
 C          0.1241863041        0.9733760639       -1.3384902287
 C          1.2008085281        1.3560121791       -2.3075534757
 C         -0.2099471042        1.8047842976       -2.5392276128
 H         -0.4503047056        2.8472644110       -2.3951548300
 H         -0.7779175167        1.3297469083       -3.3262758274
 H          1.9278971003        2.0930137037       -2.0012023335
 H          1.6012628295        0.5807576946       -2.9439333357
 H          0.1097622222        1.4606962978       -0.3702497298
