  62
        -98.94782751
 C         -1.0887785303       -1.1784959501       -0.0047407107
 C         -1.5761712000       -0.2060819905        0.8997183599
 C         -2.4818268098        0.7990236601        0.3336699906
 C         -2.7765503099        0.7676750809       -0.9786816795
 C         -3.6539692397        1.7469400615       -1.7104540488
 C         -5.1543622998        1.4374150918       -1.6150942890
 C         -5.7916111896        1.7172653712       -0.2533527788
 H         -5.5511593094        2.7351810410        0.0552373518
 H         -6.8735452297        1.6649241515       -0.3900131987
 C         -5.3846433398        0.7315218005        0.8506844506
 H         -4.9513771101       -0.1630502894        0.3974849801
 H         -6.2733197699        0.4141057904        1.4006668305
 C         -4.3973226996        1.2962965796        1.8717294009
 H         -4.1524358298        0.5051498392        2.5846733605
 H         -4.8672075094        2.1138342394        2.4228136714
 C         -3.0847073296        1.8083120797        1.2640510412
 H         -3.2507593694        2.7524123800        0.7448231517
 H         -2.3739425795        1.9781608090        2.0768668912
 H         -5.3114195000        0.3901800520       -1.8837953996
 H         -5.6607756097        2.0518437024       -2.3631103786
 H         -3.3562563098        1.7031021621       -2.7606080289
 H         -3.4620536294        2.7554044713       -1.3418352383
 O         -2.2806173502       -0.1784166887       -1.8192979700
 C         -1.4273613104       -1.1717394092       -1.3581774806
 O         -1.0505243606       -1.9715569888       -2.2362634311
 O         -1.2613501700       -0.1728961813        2.1199200599
 C         -0.1181894105       -2.2250297406        0.5027275487
 C          1.2286618995       -2.1086027705       -0.1721254813
 C          2.1003382292       -3.1869242206       -0.2801138920
 C          3.3407070392       -3.0283081206       -0.8726598619
 C          3.7475313195       -1.7974918104       -1.3556406912
 C          2.8840018697       -0.7129451203       -1.2524607006
 C          1.6413641097       -0.8781147603       -0.6616007606
 H          0.9711979499       -0.0347486702       -0.6162004901
 N          3.2464866600        0.5482770999       -1.7405992499
 S          2.5958676804        1.9482094497       -1.1134101090
 O          1.2248342704        2.1080461303       -1.5320577189
 O          3.5113635006        2.9819228398       -1.5491554184
 C          2.6947892304        1.7640318687        0.6576400809
 C          3.9463059704        1.6391295580        1.2291922408
 C          4.0419192604        1.4544751472        2.5984823606
 C          2.8904037204        1.3881640970        3.3689546707
 C          1.6421176304        1.5225129377        2.7820705608
 C          1.5426038604        1.7175644585        1.4139751109
 H          0.5844023104        1.8196253190        0.9278429910
 H          0.7390128605        1.4535307576        3.3674654008
 H          2.9641739405        1.2317656364        4.4335679206
 H          5.0110495904        1.3555092767        3.0602083705
 H          4.8191540704        1.6990983082        0.5998721207
 H          4.2063911400        0.6514578799       -2.0314264298
 H          4.7146583895       -1.6766491304       -1.8183525912
 H          4.0041515090       -3.8755166407       -0.9561800225
 H          1.8033091990       -4.1529727408        0.0944118675
 H          0.0234953896       -1.9952452512        1.5706832888
 C         -0.7153750809       -3.6139601004        0.3817549679
 C         -0.4611972611       -4.6509785710        1.4337071373
 C         -1.8114307209       -4.0114563007        1.3237436677
 H         -2.6349410711       -4.5953882402        0.9408791374
 H         -2.0999140307       -3.2921880310        2.0765288682
 H         -0.3581802913       -5.6809168709        1.1266846767
 H          0.1584124690       -4.3736093517        2.2731412374
 H         -0.8012953610       -3.9383071297       -0.6492570323
