  62
        -98.93851602
 C          1.9913102590        1.0160906026        0.3274500427
 C          2.3347350320       -0.1034860503       -0.4648683118
 C          3.6217067419       -0.7593103764       -0.1608756091
 C          4.3899596595       -0.2939486787        0.8407636184
 C          5.7070564081       -0.7859752527        1.4036376724
 C          6.5648779802       -1.7855559102        0.6320935433
 C          7.1637304472       -1.2465260793       -0.6665250871
 H          7.6695548579       -2.0694566929       -1.1763426993
 H          7.9184147743       -0.4966330444       -0.4162748587
 C          6.1725841325       -0.5987640464       -1.6301260205
 H          6.7314600128       -0.2619665829       -2.5074771152
 H          5.7372327586        0.2888900990       -1.1666927219
 C          5.0459202407       -1.5072407266       -2.1182105408
 H          5.4678812859       -2.4179463628       -2.5478038152
 H          4.5171864269       -0.9759904500       -2.9141900760
 C          4.0051746702       -1.9027296709       -1.0561796635
 H          4.3421668091       -2.7530946553       -0.4681210875
 H          3.0922315004       -2.2070771504       -1.5762457337
 H          6.0051821795       -2.6971121572        0.4438769635
 H          7.3948697081       -2.0554597873        1.2908365767
 H          6.2985460791        0.1134480397        1.6024464265
 H          5.4677881002       -1.2184964082        2.3816064637
 O          4.0077886640        0.7779475398        1.5940964945
 C          2.8284922225        1.4557093963        1.3571910442
 O          2.6385361147        2.4265761044        2.1163707126
 H         -0.4041355026       -0.5418992733       -0.5581257618
 C         -0.9214073365       -0.0847730214        0.2722008346
 C         -0.4679129161        1.1288827309        0.7693208819
 C         -1.1346103047        1.6966471616        1.8486829831
 C         -2.2211069235        1.0585888145        2.4217799097
 C         -2.6655890671       -0.1549897676        1.9292344750
 C         -2.0058563755       -0.7292151689        0.8497391948
 N         -2.4512108264       -1.9597244028        0.3379321148
 S         -4.0954849643       -2.1477753275        0.0986374325
 O         -4.7272201193       -2.5090461268        1.3439722104
 O         -4.2213622002       -3.1114208824       -0.9723590212
 C         -4.6778002313       -0.5442002823       -0.4262425220
 C         -5.6420187495        0.1124079501        0.3106723129
 C         -6.0569270191        1.3702230679       -0.0970253241
 C         -5.4996269858        1.9480659543       -1.2267770616
 C         -4.5341168836        1.2738040283       -1.9586648924
 C         -4.1167284732        0.0156420729       -1.5570913270
 H         -3.3692176097       -0.5333743186       -2.1072029836
 H         -4.1017844052        1.7245356942       -2.8374877515
 H         -5.8183432945        2.9295317506       -1.5404218728
 H         -6.8088937636        1.8957063851        0.4691991561
 H         -6.0449546428       -0.3721784684        1.1850977734
 H         -1.9178507229       -2.2853023831       -0.4548584618
 H         -3.5025557201       -0.6719343741        2.3702225687
 H         -2.7262907602        1.5092553966        3.2622684214
 H         -0.7844006405        2.6372966154        2.2480728387
 C          0.7156913113        1.8241222837        0.1396438754
 H          0.8808756574        2.7608696039        0.6880646299
 C          0.4379748293        2.1636157865       -1.3127044270
 C         -0.4693170631        3.3127082383       -1.6284861832
 C          1.0023805566        3.4256320220       -1.8889084249
 H          1.3510269828        3.4145589202       -2.9107952535
 H          1.5908071845        4.0538519206       -1.2356768812
 H         -0.8812987539        3.8672277255       -0.7992079947
 H         -1.1337663527        3.2261832796       -2.4740936760
 H          0.4009025874        1.2971372237       -1.9590545632
 O          1.6157677854       -0.5658903834       -1.3920832109
