  62
        -98.94254806
 C         -1.2180322403       -1.6163996290        0.1993476093
 C         -1.5908947903       -0.6161798988        1.1261551891
 C         -2.8572068500        0.0918652115        0.8714005187
 C         -3.5889524697       -0.2393016783       -0.2091091015
 C         -4.9355053194        0.2534930721       -0.6987000320
 C         -5.6030535293        1.4617594723       -0.0494051322
 C         -4.9207461588        2.7991995121       -0.3457194521
 H         -5.1449246484        3.0769528521       -1.3787096121
 H         -5.3533804888        3.5622949922        0.3044573578
 C         -3.4016162289        2.8175960916       -0.1927493216
 H         -2.9508131189        2.0778596015       -0.8578077914
 H         -3.0375072085        3.7949473815       -0.5218185515
 C         -2.8742203794        2.5889837215        1.2212998386
 H         -3.2697542394        3.3552958917        1.8918741285
 H         -1.7866624393        2.7053892912        1.1777995890
 C         -3.1800998700        1.2086039116        1.8218820786
 H         -4.2090444201        1.1511210220        2.1677127982
 H         -2.5315793703        1.0689769815        2.6920964188
 H         -5.6991119497        1.3028071923        1.0207447178
 H         -6.6179062291        1.5140475126       -0.4526640925
 H         -4.8181057290        0.4401895020       -1.7710565119
 H         -5.6097279597       -0.6054858877       -0.6091366421
 O         -3.1830915797       -1.2085674185       -1.0821464913
 C         -1.9818578800       -1.8828606688       -0.9343196009
 O         -1.7257153899       -2.6787429989       -1.8578555808
 O         -0.8920450305       -0.3259822190        2.1354949094
 C          0.1073736095       -2.3305203794        0.3878645998
 C          1.0925963199       -1.8703828997       -0.6602648299
 C          1.9574462399       -2.7207389100       -1.3371278896
 C          2.8526336103       -2.2126009903       -2.2634179994
 C          2.9294685008       -0.8540008103       -2.5114587894
 C          2.0722849809        0.0057220400       -1.8338657197
 C          1.1590796704       -0.5100953797       -0.9297433100
 H          0.4792581905        0.1658045205       -0.4351527002
 N          2.1147574413        1.3941376899       -2.0328269597
 S          1.8809947812        2.4013690501       -0.7137735099
 O          0.4813889011        2.4858441805       -0.3849065603
 O          2.5091306117        3.6465554999       -1.1050651797
 C          2.8176172206        1.6456456898        0.6036026305
 C          2.1904500500        1.0328720301        1.6684829903
 C          2.9702991395        0.4170033399        2.6360050806
 C          4.3512457196        0.4228724995        2.5246081010
 C          4.9665539001        1.0504540393        1.4516278412
 C          4.1943098106        1.6656293194        0.4811712509
 H          4.6345563710        2.1741123793       -0.3612625090
 H          6.0413214201        1.0585090189        1.3682933515
 H          4.9501134892       -0.0625290607        3.2790317912
 H          2.4836040391       -0.0687594099        3.4668657704
 H          1.1133155700        1.0269790804        1.7359577999
 H          2.8663281316        1.7176234697       -2.6237671695
 H          3.6362485012       -0.4610704105       -3.2259979592
 H          3.5104838103       -2.8853339805       -2.7922207591
 H          1.9255579295       -3.7807659800       -1.1466391796
 H          0.4847957393       -1.9840247394        1.3625959499
 C         -0.0713581610       -3.8319470193        0.4429124098
 C          0.8821716585       -4.6732092096        1.2365931501
 C         -0.5168429416       -4.4604165191        1.7284598596
 H         -1.2134295718       -5.2840530489        1.6846190194
 H         -0.6693819517       -3.8060553191        2.5744137996
 H          1.1469704883       -5.6487763997        0.8577049102
 H          1.6825356885       -4.1673553698        1.7549948603
 H         -0.4735547308       -4.2389256792       -0.4774566404
