  62
        -98.93715322
 C         -1.5005546691       -1.5490854345       -0.4661706447
 C         -1.4559136236       -0.1686778081       -0.7693191940
 C         -2.4112588888        0.7026935851       -0.0533673785
 C         -3.2841556552        0.1491848665        0.8061433002
 C         -4.3663531869        0.8404009916        1.5899048266
 C         -5.5822113979        1.2161205746        0.7214731867
 C         -5.2512449992        1.7197776585       -0.6822341615
 H         -4.6217572977        0.9842307262       -1.1864812457
 H         -6.1880716913        1.7829569704       -1.2421101410
 C         -4.5795799749        3.0895808531       -0.7431059996
 H         -4.4007445272        3.3216440424       -1.7959685162
 H         -5.2674340546        3.8412256414       -0.3485453182
 C         -3.2552844214        3.2150377945        0.0097031282
 H         -2.8219442249        4.1861601321       -0.2484833268
 H         -3.4245926766        3.2296489865        1.0831176931
 C         -2.2040144705        2.1681980203       -0.3485768912
 H         -1.9929789472        2.2288800756       -1.4221729821
 H         -1.2658206948        2.4339843620        0.1577687029
 H         -6.1677977603        1.9684980258        1.2519722441
 H         -6.2011473359        0.3225507807        0.6116012606
 H         -4.6928147159        0.1412775171        2.3630232695
 H         -3.9523668180        1.7122691527        2.0892458093
 O         -3.3248900231       -1.1945188782        1.0364914556
 C         -2.4221507257       -2.0584370207        0.4507764763
 O         -2.5477336800       -3.2496088821        0.8048441086
 H          0.9758845446       -0.5356690327       -0.0776335313
 C          1.3257594294       -1.4857846640        0.2845315301
 C          0.6822390816       -2.6485398065       -0.1173086071
 C          1.1412305907       -3.8681622263        0.3635138523
 C          2.2095132098       -3.9149627597        1.2427254543
 C          2.8241296083       -2.7519573899        1.6683533280
 C          2.3743161774       -1.5240939217        1.1895795495
 N          2.9894513055       -0.3380783064        1.6004655117
 S          2.2729386741        1.1765063886        1.5968560022
 O          2.9140701560        1.8616933572        2.7016748054
 O          0.8330473576        1.1025408618        1.6494507037
 C          2.8555129133        1.9034344930        0.0778326212
 C          4.1341084910        2.4306930290        0.0917882244
 C          4.6463183004        2.9919080985       -1.0653165283
 C          3.8749521140        3.0165226960       -2.2180136590
 C          2.5953973244        2.4856922605       -2.2154152976
 C          2.0747747252        1.9221022294       -1.0593132154
 H          1.0798501517        1.5032961367       -1.0514505476
 H          1.9889063368        2.5002790191       -3.1068614204
 H          4.2713900030        3.4528605109       -3.1213446731
 H          5.6410847798        3.4076269843       -1.0658874517
 H          4.6918310523        2.4040639151        1.0132947805
 H          3.6573022660       -0.4354508539        2.3495823551
 H          3.6418025564       -2.7887072436        2.3720180127
 H          2.5570324299       -4.8671425365        1.6142644551
 H          0.6418872734       -4.7782000733        0.0646180190
 C         -0.5172192240       -2.5646928053       -1.0283295119
 H         -1.0390759627       -3.5338943985       -0.9761577684
 C         -0.1513563163       -2.3251209312       -2.4857823706
 C          1.1858184669       -1.8236849236       -2.9321290364
 C          0.8076704935       -3.2525083363       -3.1725902951
 H          0.5879284964       -3.5707849355       -4.1803851896
 H          1.2888697107       -4.0047055820       -2.5656136713
 H          1.2072423850       -1.1421158514       -3.7683034327
 H          1.9294333312       -1.6103309315       -2.1802835520
 H         -1.0063778376       -1.9925479831       -3.0651196856
 O         -0.6664538856        0.3429535621       -1.6049826585
