  62
        -98.93824429
 C         -1.9156744922       -1.1431525021       -0.1625161298
 C         -2.3865684163        0.0834023714       -0.6820661253
 C         -3.8445943330        0.3171862344       -0.6151632492
 C         -4.6312863184       -0.6340987961       -0.0787110508
 C         -6.1224925343       -0.6039640375        0.1272105378
 C         -6.5393935614        0.2777329761        1.3156639029
 C         -5.8191796512        1.6206975529        1.4041592781
 H         -6.1171060086        2.0960998468        2.3424304535
 H         -4.7424972588        1.4483450617        1.4563399798
 C         -6.1218899148        2.5971182208        0.2701309159
 H         -7.1953135979        2.7981738917        0.2469258779
 H         -5.6133259768        3.5355781243        0.5055848293
 C         -5.6800552944        2.1566752521       -1.1269274701
 H         -6.3648073794        1.4219511772       -1.5418791207
 H         -5.7358062794        3.0343469711       -1.7776962901
 C         -4.2449096645        1.6458585163       -1.2098209540
 H         -3.9540599813        1.5943161332       -2.2662955204
 H         -3.5725581472        2.3886609092       -0.7649442333
 H         -6.3280498153       -0.2736309710        2.2350556741
 H         -7.6167592731        0.4426415182        1.2614663603
 H         -6.6182657807       -0.2855017413       -0.7849282512
 H         -6.4311179094       -1.6314686861        0.3320215739
 O         -4.1284546958       -1.8028963471        0.4133652460
 C         -2.7786351300       -2.0887041166        0.3898280375
 O         -2.4727832922       -3.1936191572        0.8826871728
 H          1.5705171883        0.2669891419       -1.0339138016
 C          1.3123395147        0.3710888122        0.0057524583
 C          0.3291956411       -0.4204862134        0.5760481187
 C          0.0112448240       -0.2283181652        1.9191702269
 C          0.6504223885        0.7417861732        2.6649706750
 C          1.6280846636        1.5355544027        2.0898952967
 C          1.9553504631        1.3512183677        0.7523539404
 N          2.9235828425        2.1643146645        0.1441023643
 S          4.0674251283        1.5398166519       -0.8990999645
 O          5.0427266052        2.5989392718       -1.0352455699
 O          3.4494325431        1.0802227933       -2.1157276603
 C          4.7857714106        0.1714831165       -0.0092170640
 C          4.3050710278       -1.1058547713       -0.2129860291
 C          4.8367549522       -2.1468157877        0.5321201853
 C          5.8327024024       -1.8943187860        1.4625831209
 C          6.3073722890       -0.6052242562        1.6530985266
 C          5.7775031649        0.4399049139        0.9145101534
 H          6.1261354998        1.4541673127        1.0227196914
 H          7.0856789208       -0.4129241346        2.3738916530
 H          6.2430637244       -2.7079260737        2.0396557862
 H          4.4702371913       -3.1499423931        0.3826347070
 H          3.5342288692       -1.2658834995       -0.9482318059
 H          3.3349763455        2.8533742465        0.7561671477
 H          2.1225105414        2.3015687723        2.6677599278
 H          0.3881629228        0.8827543948        3.7027176444
 H         -0.7567531771       -0.8468516012        2.3641961648
 C         -0.4325180374       -1.4715066009       -0.1933226214
 H         -0.3272049302       -2.4285397555        0.3378373967
 C          0.0350228435       -1.6554195529       -1.6210590785
 C          1.1979674951       -2.5512389241       -1.9199228654
 C         -0.1905795909       -2.9759893368       -2.2914125262
 H         -0.4686561397       -2.9837237438       -3.3346652894
 H         -0.6617469799       -3.7538260291       -1.7079344587
 H          1.8768621176       -2.2671648501       -2.7107252510
 H          1.6671266420       -3.0522657540       -1.0863948823
 H         -0.0928129220       -0.7650530236       -2.2262043077
 O         -1.6321111927        0.9593281670       -1.1817649613
