  62
        -98.93806902
 C          2.1912092811        0.9407155496       -0.0208546960
 C          2.9042170455        0.1899889357        0.9392235043
 C          3.7324385530       -0.9244190054        0.4380455612
 C          3.7400760872       -1.1794821482       -0.8839968198
 C          4.5269012210       -2.2261109864       -1.6274961329
 C          6.0100041957       -1.8536161121       -1.7821760355
 C          6.6686033417       -1.3026488947       -0.5203622867
 H          7.6800927154       -0.9844504937       -0.7860204049
 H          6.1260810237       -0.4145590361       -0.1912469626
 C          6.7795960375       -2.2891306930        0.6397362922
 H          7.3473620287       -3.1635613062        0.3140738790
 H          7.3525703925       -1.7969914025        1.4298207680
 C          5.4559980287       -2.7656733107        1.2423509042
 H          5.6872252345       -3.2447383421        2.1983277847
 H          4.9918124962       -3.5273021001        0.6213789611
 C          4.4569917493       -1.6530982362        1.5445181066
 H          3.6704511183       -2.0576984114        2.1938358797
 H          4.9513208288       -0.8795465189        2.1435526172
 H          6.5529009439       -2.7366028220       -2.1235350610
 H          6.0865592672       -1.0885991423       -2.5585982195
 H          4.4188745994       -3.1913954243       -1.1418006334
 H          4.0824344833       -2.3025276682       -2.6222595761
 O          3.0119493497       -0.4431908035       -1.7719069604
 C          2.2243749697        0.6227288111       -1.3781638173
 O          1.6160503192        1.1876320027       -2.3057860421
 H         -0.0237511064       -0.1594864421        0.7822862355
 C         -0.6572125365        0.6060840629        0.3495600175
 C         -0.1168621425        1.8593047213        0.0868190014
 C         -0.9465582322        2.8349353256       -0.4495727843
 C         -2.2718450137        2.5508352236       -0.7319760266
 C         -2.7985851272        1.2966707757       -0.4864312883
 C         -1.9815843502        0.3163086014        0.0619269917
 N         -2.5057341838       -0.9663181347        0.3081219976
 S         -3.8970195131       -1.0735448319        1.2450960816
 O         -3.9930900103        0.0286278648        2.1741988315
 O         -3.8632856892       -2.3999303160        1.8220661644
 C         -5.2213076357       -0.9902103000        0.0585938952
 C         -6.1918522501       -0.0146871839        0.1762273693
 C         -7.2178745782        0.0248050921       -0.7552364111
 C         -7.2548002272       -0.9068641464       -1.7813471285
 C         -6.2735646545       -1.8818987122       -1.8836436413
 C         -5.2459739218       -1.9278290614       -0.9551787588
 H         -4.4665908961       -2.6704427676       -0.9965360904
 H         -6.3057371124       -2.6050491235       -2.6826049906
 H         -8.0534284493       -0.8739100051       -2.5054862265
 H         -7.9821355131        0.7812079226       -0.6770997291
 H         -6.1183472321        0.6918195869        0.9875030414
 H         -1.8147199949       -1.6269396041        0.6336284543
 H         -3.8272262746        1.0695028316       -0.7138411960
 H         -2.9024713531        3.3176772835       -1.1550701980
 H         -0.5549088995        3.8183082767       -0.6509402781
 C          1.3310587101        2.1029743662        0.4373675486
 H          1.4144586034        2.1133537387        1.5351351742
 C          1.8753046344        3.4082677985       -0.1042986315
 C          1.6928343900        4.6821609070        0.6638428059
 C          3.0455096854        4.0429418606        0.5835337335
 H          3.8063843556        4.5136494230       -0.0206873271
 H          3.4313865642        3.5474345251        1.4627233527
 H          1.5271273179        5.5964683295        0.1143250026
 H          1.1627794656        4.6285379617        1.6028688023
 H          1.8474685550        3.4514351158       -1.1872623444
 O          2.8552776168        0.4347993294        2.1769390263
