  62
        -98.93844599
 C         -0.9973067386       -1.1886880421       -0.5630119535
 C         -2.1115219209       -1.3582549763        0.2976200088
 C         -2.9522608608       -0.1783581251        0.5316498153
 C         -2.6135551354        0.9955388865       -0.0296875921
 C         -3.3044142448        2.3211692544        0.1572121370
 C         -4.7489169455        2.4233471512       -0.3689649784
 C         -5.8269646011        2.1252046173        0.6801862434
 H         -5.4110702001        2.3079786587        1.6718924551
 H         -6.6492555497        2.8317069352        0.5500081148
 C         -6.4330036043        0.7196036090        0.6311457354
 H         -7.1497692800        0.6688398359       -0.1916150189
 H         -6.9860159514        0.5614549846        1.5595463748
 C         -5.4398600770       -0.4276723681        0.4451295424
 H         -5.1019723618       -0.4567985885       -0.5933787322
 H         -5.9665823628       -1.3669197706        0.6252067531
 C         -4.1962964709       -0.3564169390        1.3527056433
 H         -4.2931283621        0.4493557613        2.0794290643
 H         -4.0766407804       -1.2954217164        1.8971874829
 H         -4.8859626827        3.4489339455       -0.7153644841
 H         -4.8670853575        1.7710775798       -1.2336743886
 H         -3.2842655585        2.5754480802        1.2198978140
 H         -2.6824547891        3.0487081575       -0.3686552126
 O         -1.5276150342        1.1252052747       -0.8353556584
 C         -0.6963821705        0.0518271754       -1.1260434034
 O          0.2445218805        0.3529699388       -1.8860826687
 H          1.5788197423       -0.3831726946       -0.1495756716
 C          1.7725313910       -1.2654095846        0.4382043349
 C          1.0130310032       -2.4087985879        0.2397003922
 C          1.2981918525       -3.5383223004        0.9977582093
 C          2.3083709746       -3.5137470512        1.9430522085
 C          3.0301164166       -2.3559872795        2.1721627616
 C          2.7513500066       -1.2218642460        1.4184459555
 N          3.4411600743       -0.0178019920        1.6240060457
 S          2.5903222956        1.4248461935        1.5273910502
 O          3.3632986354        2.3469015319        2.3378990250
 O          1.2091944229        1.2594940597        1.9216510295
 C          2.7215599532        1.9399188942       -0.1691199456
 C          3.8557648231        1.6192718028       -0.8874965374
 C          3.9722939839        2.0783702306       -2.1890372752
 C          2.9637230704        2.8514497872       -2.7432406111
 C          1.8345484727        3.1682363409       -2.0062935990
 C          1.7098180818        2.7087456566       -0.7055185381
 H          0.8369770059        2.9145287173       -0.1053838216
 H          1.0436747899        3.7586041056       -2.4405342768
 H          3.0541699710        3.2044779201       -3.7585929276
 H          4.8466003338        1.8286090296       -2.7686406274
 H          4.6162772008        1.0106888097       -0.4269792497
 H          4.0875007090       -0.0191015690        2.4000517158
 H          3.7961949795       -2.3250001987        2.9319157312
 H          2.5208552004       -4.3976802967        2.5249688053
 H          0.7094987829       -4.4326845572        0.8575807470
 C         -0.1121758914       -2.4059049658       -0.7690644986
 H         -0.7525510373       -3.2727232594       -0.5541705094
 C          0.4382643140       -2.5505688359       -2.1740613061
 C          0.8252892745       -3.9106541285       -2.6693535867
 C         -0.3895394947       -3.2290336592       -3.2222641714
 H         -0.3568009921       -2.8445047228       -4.2303201903
 H         -1.3608432373       -3.5999890136       -2.9284826944
 H          0.6759686019       -4.7485276973       -2.0055629046
 H          1.6969664172       -3.9983710438       -3.2990892728
 H          1.0422090449       -1.7080939041       -2.4841808962
 O         -2.3913906684       -2.4574344348        0.8500785730
