  62
        -98.94684961
 C         -1.7775039581       -1.3603996178       -0.0541542213
 C         -2.8895093485       -0.6823976947        0.5034725719
 C         -3.3007263353        0.5568210988       -0.1671024875
 C         -2.6089601341        0.9851855987       -1.2382008911
 C         -2.8931963043        2.2495413026       -1.9952598046
 C         -2.0676796487        3.4227248322       -1.4507757255
 C         -2.1400960077        3.5793601812        0.0682652084
 H         -1.6319503461        2.7314738096        0.5350818197
 H         -1.5604720715        4.4683312876        0.3290818760
 C         -3.5623535806        3.7135906254        0.6306391568
 H         -3.5663974710        4.5132644247        1.3744886270
 H         -4.2483026923        4.0072875539       -0.1651627341
 C         -4.0977415059        2.4599249498        1.3252455347
 H         -4.9934695179        2.7386720039        1.8872000134
 H         -3.3575076767        2.1003734424        2.0452145140
 C         -4.4787151623        1.2947475449        0.4031762507
 H         -5.0309064828        0.5637430761        1.0013503761
 H         -5.1341517821        1.6537930092       -0.3930584008
 H         -2.4122873596        4.3404331869       -1.9320809101
 H         -1.0200182797        3.2657266137       -1.7186863926
 H         -3.9555478448        2.4764903012       -1.9266641093
 H         -2.6311993959        2.0892096898       -3.0427497662
 O         -1.5398543443        0.3196424883       -1.7375995063
 C         -1.0693352502       -0.8378117426       -1.1366800270
 O         -0.0409070594       -1.2969966242       -1.6697326408
 O         -3.5082180303       -1.0954977580        1.5224070076
 C         -1.2770669612       -2.6066049578        0.6564993342
 C          0.2077544894       -2.4804145117        0.8904384825
 C          1.1422598441       -3.4483017339        0.5475019606
 C          2.4919754602       -3.2291198908        0.7678096923
 C          2.9396375971       -2.0348282709        1.3015562654
 C          2.0106051787       -1.0604539972        1.6478106615
 C          0.6597429157       -1.3034725272        1.4754410870
 H         -0.0492786600       -0.5363846276        1.7527927962
 N          2.4019883120        0.2006911357        2.1497179388
 S          2.1094723972        1.5025890116        1.1284610176
 O          2.5860008096        2.6650460432        1.8481838171
 O          0.7247346996        1.5175980954        0.7380904956
 C          3.1809976534        1.1968779343       -0.2650987079
 C          2.7977094452        0.2902997666       -1.2329491599
 C          3.6856592811        0.0001312626       -2.2587035470
 C          4.9288504879        0.6116421596       -2.2982369139
 C          5.2969772798        1.5205439544       -1.3171610866
 C          4.4186614719        1.8123064133       -0.2868236678
 H          4.6586564052        2.5121998936        0.4974612744
 H          6.2631261160        1.9978609932       -1.3501313845
 H          5.6132155687        0.3787378510       -3.0987907586
 H          3.3914608836       -0.7077447033       -3.0169904122
 H          1.8236702919       -0.1731137486       -1.1897769355
 H          3.3672295784        0.2352727098        2.4503214232
 H          3.9943970366       -1.8512610404        1.4419133913
 H          3.2067168132       -3.9907499488        0.4959230405
 H          0.8184590429       -4.3671260579        0.0870242782
 H         -1.7772696046       -2.5753752739        1.6398191931
 C         -1.6855448824       -3.9193780303        0.0057603619
 C         -2.8794747560       -3.9963831214       -0.8970203198
 C         -1.5029456497       -4.1770526923       -1.4589830381
 H         -1.2054760084       -5.1674353708       -1.7713126671
 H         -1.0812837857       -3.3832117222       -2.0545314108
 H         -3.5249195878       -4.8586086457       -0.8206626626
 H         -3.4033431749       -3.0762327445       -1.1129995900
 H         -1.5365691112       -4.7646399310        0.6707531580
