  62
        -98.94307863
 C          1.7037487124        1.2538925533        0.3500788761
 C          1.3704102866        0.1658442859       -0.4880282651
 C          1.9205620346       -1.1442367692       -0.1098522138
 C          2.6655380182       -1.2487682723        1.0033279431
 C          3.2809787318       -2.4887437094        1.6017919528
 C          3.9760250094       -3.4681689599        0.6441106625
 C          4.6269348182       -2.8251757803       -0.5896068833
 H          4.6672356209       -1.7413960912       -0.4686044172
 H          5.6549938403       -3.1825308734       -0.6730084644
 C          3.9033702302       -3.1684370959       -1.8941358189
 H          4.5919481493       -3.0131382464       -2.7280311002
 H          3.6416922285       -4.2286077956       -1.8789843920
 C          2.6474763911       -2.3475803214       -2.1848633371
 H          2.9264179342       -1.3208059394       -2.4356777545
 H          2.1631585575       -2.7744037592       -3.0661731957
 C          1.6212649488       -2.2826659259       -1.0418520065
 H          0.6410850262       -2.0687501773       -1.4764028388
 H          1.5585335798       -3.2284809206       -0.5087421292
 H          3.2615312296       -4.2218555415        0.3155945378
 H          4.7371910698       -3.9903017337        1.2263590304
 H          4.0010109229       -2.1218668861        2.3375573053
 H          2.4979884212       -3.0172915422        2.1542166312
 O          2.9454227543       -0.1763288864        1.7976840481
 C          2.4680537525        1.0885658033        1.5017241578
 O          2.7903901988        1.9695265819        2.3270065865
 H         -0.5077631173        1.2506788397        1.6026563715
 C         -1.0451506207        1.7938945283        0.8385374996
 C         -0.3475616167        2.5772570530       -0.0721166959
 C         -1.0687806968        3.2740687832       -1.0339604836
 C         -2.4471509385        3.1618623919       -1.0961151466
 C         -3.1314432976        2.3392215284       -0.2200170328
 C         -2.4195136149        1.6471671968        0.7526861042
 N         -3.0629980282        0.7789660285        1.6604127701
 S         -2.6534247847       -0.8453229280        1.5795284111
 O         -3.5064698793       -1.4933600992        2.5535759928
 O         -1.2346229904       -1.0094768904        1.7638809843
 C         -3.1515853713       -1.3433461848       -0.0600295487
 C         -2.3561545137       -1.0161531895       -1.1396848277
 C         -2.7932582964       -1.3496185347       -2.4130408533
 C         -4.0081224866       -1.9941723592       -2.5854354333
 C         -4.7961039335       -2.3131400276       -1.4894962650
 C         -4.3681151221       -1.9809953042       -0.2146480246
 H         -4.9440985125       -2.2109269381        0.6672485430
 H         -5.7404477656       -2.8154783395       -1.6242754681
 H         -4.3410357359       -2.2492622115       -3.5791692719
 H         -2.1738366847       -1.0961443991       -3.2585552648
 H         -1.4124196319       -0.5152554262       -0.9870553460
 H         -4.0710007511        0.8613454333        1.6532503120
 H         -4.2035683130        2.2302138367       -0.2854107854
 H         -2.9934974091        3.7080037480       -1.8497344794
 H         -0.5498798177        3.9010660113       -1.7404829316
 C          1.1570221365        2.6355707148        0.0413298087
 H          1.4148785834        3.2664895432        0.9051163061
 C          1.8285589567        3.1989119599       -1.1951070040
 C          2.0495100638        4.6745322574       -1.3340456797
 C          3.2103235615        3.7643933003       -1.0708650942
 H          3.9167486610        3.5818015270       -1.8667225121
 H          3.6548942770        3.7684314452       -0.0858854846
 H          1.9633603809        5.1195114719       -2.3139011297
 H          1.7134199446        5.3091489451       -0.5279750506
 H          1.6004188527        2.6267026442       -2.0871469342
 O          0.6354559122        0.2815968454       -1.5042628916
