  62
        -98.94080884
 C         -2.5916061612       -1.3207360854        0.2269773844
 C         -2.4101363185       -0.2280697889       -0.6583739716
 C         -3.5344938635        0.7198519474       -0.7457279188
 C         -4.6471130801        0.5036249828       -0.0228473632
 C         -5.8401675731        1.4128308022        0.0164311241
 C         -5.7144147138        2.4430934690        1.1474438876
 C         -4.3679458279        3.1665563601        1.1773871810
 H         -4.4056448646        3.8903067311        1.9943847636
 H         -3.5805401338        2.4491788866        1.4205900234
 C         -4.0058584478        3.8889114829       -0.1278223925
 H         -4.9013016907        4.0302210942       -0.7342725216
 H         -3.6195472277        4.8807235413        0.1162565529
 C         -2.9332983810        3.1892431877       -0.9652425507
 H         -2.0650220488        2.9637340985       -0.3398035582
 H         -2.6009244649        3.8839547771       -1.7416232871
 C         -3.3707356070        1.8966938947       -1.6659612145
 H         -4.2878189625        2.0763580399       -2.2310720476
 H         -2.5806369163        1.6204388904       -2.3707656416
 H         -6.5187598750        3.1730262196        1.0404289266
 H         -5.8469586855        1.9278095151        2.1015090906
 H         -5.9367942337        1.9190018893       -0.9420211847
 H         -6.7300982203        0.8049945783        0.1881444930
 O         -4.7901065591       -0.5608356098        0.8065452710
 C         -3.7652756853       -1.4764009267        0.9720795830
 O         -4.0164134415       -2.3754449666        1.7987998240
 H          0.6197550304       -1.9511972535       -1.1972034782
 C          0.7816546604       -1.5331003163       -0.2159950209
 C         -0.1993165716       -1.6613780867        0.7530997314
 C          0.0122705472       -1.0793677951        1.9992819236
 C          1.1817251580       -0.3930978248        2.2671278411
 C          2.1588409001       -0.2637713031        1.2953415464
 C          1.9468277958       -0.8221566638        0.0423760989
 N          2.9249747084       -0.6918517542       -0.9558840459
 S          3.7284739228        0.7675685640       -1.1415628299
 O          2.9212257568        1.8972147694       -0.7444296632
 O          4.1995097302        0.7624371387       -2.5099115003
 C          5.1313758656        0.6076682680       -0.0537041643
 C          5.9035222732       -0.5338145660       -0.1463938095
 C          7.0063903535       -0.6653897590        0.6820425320
 C          7.3199669800        0.3423231378        1.5819475623
 C          6.5373684559        1.4838476652        1.6607409038
 C          5.4318630287        1.6207639084        0.8354669842
 H          4.7916181228        2.4882714243        0.8661960816
 H          6.7823316223        2.2667439741        2.3604789934
 H          8.1790797676        0.2375098498        2.2255806407
 H          7.6170815347       -1.5519579347        0.6238486607
 H          5.6282956537       -1.2923674693       -0.8598273563
 H          2.6384834000       -1.0607569654       -1.8511668085
 H          3.0655412589        0.2845349940        1.4922041456
 H          1.3340859361        0.0505186320        3.2394694493
 H         -0.7590523263       -1.1637389849        2.7529948871
 C         -1.5080025434       -2.3581022707        0.4784605847
 H         -1.8191390926       -2.8701918570        1.4029003855
 C         -1.3961568097       -3.4338798937       -0.5917951166
 C         -2.6301633271       -4.0108970566       -1.2171564846
 C         -1.6872004789       -3.1883776426       -2.0404316155
 H         -1.0765568014       -3.6942673349       -2.7746547266
 H         -1.9899627616       -2.1966699369       -2.3367651441
 H         -2.6726760530       -5.0757754362       -1.3889521633
 H         -3.5779459418       -3.5745200531       -0.9366077840
 H         -0.5956028433       -4.1336343528       -0.3708232325
 O         -1.3792419402       -0.0387433212       -1.3552374953
