  62
        -98.93566582
 C         -1.8568342113       -1.2807998255       -0.0243399347
 C         -3.0302584061       -1.1183822243        0.7565390255
 C         -4.1999445456       -0.5221317593        0.0920931850
 C         -4.1116018845       -0.1741148493       -1.2025636199
 C         -5.1790484254        0.4050590270       -2.0968467879
 C         -6.0738730414        1.5051747592       -1.5101973882
 C         -5.3858679907        2.4292810822       -0.4946996779
 H         -4.3062462303        2.2692862948       -0.5121943937
 H         -5.5648206317        3.4673263972       -0.7814430080
 C         -5.9057456602        2.2405506322        0.9325671259
 H         -5.6689446463        3.1354137427        1.5132686537
 H         -6.9938054714        2.1511284917        0.8996583149
 C         -5.3280048003        1.0448971815        1.6891101489
 H         -5.8609577769        0.9592422263        2.6390995627
 H         -4.2769954614        1.2303083771        1.9279733001
 C         -5.4082404200       -0.3042783970        0.9562821977
 H         -6.3311189875       -0.3897306568        0.3877139108
 H         -5.3872145736       -1.0967846507        1.7092682955
 H         -6.9479922986        1.0537738853       -1.0430204994
 H         -6.4384543835        2.0967805007       -2.3517347575
 H         -4.6417462423        0.7945452245       -2.9650312654
 H         -5.8085317623       -0.4167512879       -2.4505776990
 O         -2.9673719226       -0.3486451978       -1.9190770062
 C         -1.8140824996       -0.8857469919       -1.3608123275
 O         -0.8592199268       -0.9409505284       -2.1586454608
 O         -3.1017366857       -1.4748723413        1.9627288782
 C         -0.6600870380       -1.9052157643        0.6716741004
 C          0.2845250564       -0.8574449252        1.2014983663
 C          0.7323248204       -0.8983539539        2.5165359421
 C          1.6142229442        0.0573323077        2.9917999150
 C          2.0706010873        1.0685243036        2.1656317055
 C          1.6308531475        1.1163551525        0.8487012928
 C          0.7440932931        0.1598686955        0.3758264956
 H          0.4075941778        0.2020191089       -0.6498168217
 N          2.0977153505        2.1341147657       -0.0085524175
 S          3.7583139198        2.2338055096       -0.2188028274
 O          4.3532432427        2.7539120668        0.9864084043
 O          3.9500605063        3.0188972516       -1.4163727058
 C          4.2819400158        0.5507455141       -0.4831790278
 C          4.6896009903       -0.2140592203        0.5915566223
 C          5.0171748216       -1.5436258992        0.3790881737
 C          4.9346970922       -2.0814933946       -0.8957898452
 C          4.5294693495       -1.2981739831       -1.9656954141
 C          4.1916662838        0.0293281272       -1.7585411719
 H          3.8704677414        0.6708723547       -2.5637116698
 H          4.4656677200       -1.7178136862       -2.9567131217
 H          5.1855977275       -3.1175837156       -1.0574690324
 H          5.3319583390       -2.1557216056        1.2086048556
 H          4.7491361333        0.2430695032        1.5652323518
 H          1.6439550248        2.1212650792       -0.9113323192
 H          2.7606501486        1.8191590500        2.5157462360
 H          1.9486410943        0.0161603697        4.0171152912
 H          0.3736374041       -1.6786919241        3.1714788972
 H         -1.0902037043       -2.4281782605        1.5403627924
 C          0.0451309906       -2.9533396971       -0.1794295694
 C          1.3792103479       -2.7460955434       -0.8241339052
 C          1.2546123557       -3.6659692087        0.3505430671
 H          1.3390557328       -4.7297989885        0.1903522997
 H          1.6567845910       -3.3241855692        1.2921139430
 H          1.5276075684       -3.1671041321       -1.8064192447
 H          1.8785098839       -1.8010180259       -0.6811661488
 H         -0.6664698830       -3.5527520516       -0.7390847597
