  62
        -98.94132997
 C         -2.4495786943       -1.2080295953        0.1517191532
 C         -2.8226381939       -0.3062793536        1.1823780980
 C         -3.4276801995        0.9618283815        0.7597474334
 C         -3.5978439685        1.2001268067       -0.5528062759
 C         -4.1554802584        2.4672991155       -1.1316692323
 C         -3.0405620812        3.4730663640       -1.4498799330
 C         -2.0563581149        3.6967253710       -0.3010992633
 H         -1.4765791883        2.7838428614       -0.1387769822
 H         -1.3467148932        4.4604320325       -0.6282776009
 C         -2.7074107706        4.1351266533        1.0184748016
 H         -2.1162589102        4.9494041966        1.4425487526
 H         -3.7074151899        4.5257110540        0.8256024346
 C         -2.7855080710        3.0407153792        2.0846577003
 H         -1.8038025912        2.5728520108        2.1969413795
 H         -3.0367888046        3.5125855426        3.0382956307
 C         -3.8199436747        1.9363223797        1.8337396513
 H         -4.7912501753        2.3837940246        1.6135654861
 H         -3.9098323868        1.3491511549        2.7522506213
 H         -2.4766357866        3.1072478665       -2.3115567948
 H         -3.5026869229        4.4233545605       -1.7245830180
 H         -4.6832571056        2.2207603093       -2.0547173570
 H         -4.8604225370        2.9023984971       -0.4258717975
 O         -3.2383617833        0.3130884779       -1.5132291903
 C         -2.6289797377       -0.8954213849       -1.1955161552
 O         -2.3178597215       -1.5700204983       -2.1966972209
 O         -2.6621785381       -0.5611500344        2.4059594893
 C         -1.7828085509       -2.4995336128        0.5966989954
 C         -0.2926644429       -2.2865140083        0.6736524125
 C          0.4258473509       -2.5613391993        1.8304947889
 C          1.7834373260       -2.2966034917        1.8972009730
 C          2.4474722708       -1.7406840625        0.8177445435
 C          1.7361329531       -1.4631424978       -0.3417609741
 C          0.3829716847       -1.7460753685       -0.4124488023
 H         -0.1614937416       -1.5223387398       -1.3189829670
 N          2.3975092325       -0.8342793012       -1.4296207907
 S          2.5334778663        0.8327626336       -1.1878008922
 O          1.3926173370        1.3539194628       -0.4667230219
 O          2.7813948827        1.4023888538       -2.4943798509
 C          4.0014958433        0.9590511063       -0.1912211210
 C          3.9009017612        1.3158181875        1.1388156242
 C          5.0553795198        1.3744204198        1.9042383933
 C          6.2811523093        1.0753518745        1.3290642615
 C          6.3647920260        0.7205876552       -0.0094374952
 C          5.2149357793        0.6604930076       -0.7802536350
 H          5.2309745913        0.3942122884       -1.8239515840
 H          7.3198720753        0.4895167990       -0.4528241211
 H          7.1768945790        1.1191491745        1.9282363638
 H          4.9922068551        1.6497123234        2.9447153265
 H          2.9250661407        1.5337094007        1.5429111466
 H          1.9080304242       -0.9795907789       -2.3036184038
 H          3.5015738782       -1.5206657586        0.8643220012
 H          2.3277401634       -2.5145516616        2.8030812142
 H         -0.0922327828       -2.9640731512        2.6884327721
 H         -2.1469951807       -2.6640376816        1.6231495559
 C         -2.1807969763       -3.7128912277       -0.2304128036
 C         -1.2359350525       -4.4488646006       -1.1282868232
 C         -1.6809069135       -5.0732194745        0.1579204674
 H         -2.3657550936       -5.9065196186        0.1219707110
 H         -0.9606773380       -5.1242277993        0.9605129611
 H         -1.6283170438       -4.8298250967       -2.0587890927
 H         -0.2182009091       -4.0983481393       -1.1997283932
 H         -3.2094695078       -3.6501304964       -0.5700064707
