  62
        -98.93573486
 C          2.3013696199        0.7281131926        0.8748826052
 C          3.4863572181        0.9996159374        0.1460280147
 C          4.5622816556        0.0026345981        0.2788741267
 C          4.3789817274       -1.0757649139        1.0602314529
 C          5.3656262767       -2.1940137972        1.2291276240
 C          5.1201143516       -3.3107046717        0.2046815885
 C          4.9752818311       -2.8098706333       -1.2324517574
 H          4.8361422281       -3.6862951412       -1.8691792336
 H          4.0653789777       -2.2099066649       -1.3099121202
 C          6.1690278092       -1.9905405857       -1.7426794611
 H          7.0400089810       -2.1737031756       -1.1125020850
 H          6.4204642664       -2.3290793452       -2.7499695782
 C          5.9138610457       -0.4847572090       -1.8293477219
 H          4.9883509363       -0.3016760919       -2.3808359573
 H          6.7299629702       -0.0339233533       -2.4000681037
 C          5.8297790138        0.2557580982       -0.4886979947
 H          6.7032693643        0.0155687502        0.1204674227
 H          5.8413629074        1.3287338126       -0.7010325349
 H          5.9471097056       -4.0206819351        0.2634742112
 H          4.2013653190       -3.8349539226        0.4783052534
 H          6.3744622817       -1.8009666061        1.1192729308
 H          5.2515690117       -2.6033829176        2.2342833498
 O          3.2346547576       -1.2944675580        1.7593143998
 C          2.1746353246       -0.4085570809        1.6780854639
 O          1.1873832409       -0.7314334626        2.3715396715
 H         -1.5497215996        1.0300913614        0.9064383715
 C         -1.1519466429        1.0117144456       -0.0971854145
 C          0.1889946306        1.2910658287       -0.3164241207
 C          0.6824482182        1.2370845506       -1.6170344618
 C         -0.1530337145        0.9084853424       -2.6682749704
 C         -1.4882221819        0.6217721481       -2.4446398256
 C         -1.9921738848        0.6756812408       -1.1502894428
 N         -3.3550519532        0.4291672591       -0.9064879350
 S         -3.7944523721       -0.4035260431        0.4968640928
 O         -3.7368682257        0.5065068678        1.6126938478
 O         -3.0271803282       -1.6235584805        0.6112848515
 C         -5.4971739141       -0.7731712977        0.1173694758
 C         -6.4332491851        0.2365350352        0.2399833969
 C         -7.7548922219       -0.0335784941       -0.0766780266
 C         -8.1169449367       -1.3013409243       -0.5079189698
 C         -7.1669876843       -2.3048019831       -0.6238974732
 C         -5.8426664975       -2.0408813354       -0.3103185172
 H         -5.0709477609       -2.7910115992       -0.3771857797
 H         -7.4517467625       -3.2902016885       -0.9558556221
 H         -9.1465765881       -1.5094429988       -0.7523805022
 H         -8.4967505222        0.7431724784        0.0150599542
 H         -6.1065951821        1.2022954623        0.5884101949
 H         -3.8233799613        0.0372307611       -1.7131412271
 H         -2.1371480581        0.3599244007       -3.2666409572
 H          0.2408050519        0.8693399856       -3.6728230216
 H          1.7241315367        1.4593025622       -1.7912951796
 C          1.0839471194        1.6381678583        0.8459724377
 H          0.5273230539        1.4007277905        1.7673664654
 C          1.4414311936        3.1181854477        0.9049478386
 C          1.1864513516        4.0815901570       -0.2112776234
 C          0.3466148603        4.1369804467        1.0267863089
 H          0.4787377684        4.9606784912        1.7118987725
 H         -0.6696839343        3.7762789462        0.9603373045
 H          1.9206350653        4.8549953468       -0.3770559439
 H          0.7344630541        3.7089964244       -1.1165071929
 H          2.3350786122        3.2937402358        1.4950155550
 O          3.6582191082        2.0099719635       -0.5817004154
