  62
        -98.94265756
 C         -1.3598662347       -1.1763420405       -0.7553204412
 C         -0.9592651017       -1.9538456548        0.3560411586
 C          0.3200293040       -2.6751517996        0.2236443941
 C          1.0525607726       -2.5194727758       -0.8919886045
 C          2.3547084952       -3.1777515463       -1.2806104882
 C          3.4111942060       -3.3950627761       -0.1925674541
 C          3.5166381106       -2.2695170359        0.8465757604
 H          4.5576227041       -1.9491556922        0.9244566883
 H          2.9325468146       -1.4005488983        0.5369265441
 C          3.0435288447       -2.6926827807        2.2380722169
 H          3.4195285971       -3.6949986001        2.4577030953
 H          3.4713620198       -2.0079784109        2.9744394684
 C          1.5281942308       -2.6632612306        2.4245999787
 H          1.1803248082       -1.6280604766        2.3612662190
 H          1.3020592302       -3.0200390227        3.4328228683
 C          0.7261127559       -3.4986733948        1.4118473583
 H         -0.2060844574       -3.8067237751        1.8936218904
 H          1.2737136418       -4.3913065679        1.1169381436
 H          4.3687749248       -3.5075937245       -0.7045513234
 H          3.2184045951       -4.3355933839        0.3213996298
 H          2.1167967718       -4.1417054362       -1.7412946527
 H          2.7699461650       -2.5429513765       -2.0677046516
 O          0.6512248469       -1.7135888785       -1.9178680964
 C         -0.5463726835       -1.0216490916       -1.8749211572
 O         -0.7682199128       -0.3131416117       -2.8781240178
 O         -1.6467379888       -2.0660955199        1.4045971400
 C         -2.6513398569       -0.3780287322       -0.7060119060
 C         -2.5525269907        0.6342404549        0.4099095878
 C         -3.5520710472        0.8636657284        1.3455345743
 C         -3.3565322382        1.7833630020        2.3622765218
 C         -2.1640793248        2.4739454952        2.4783965864
 C         -1.1630557060        2.2605772310        1.5371447690
 C         -1.3778765922        1.3701181822        0.4999458312
 H         -0.6009968907        1.2124494535       -0.2343749988
 N          0.0645662354        2.9372756287        1.6018425360
 S          1.4588460632        2.1243444104        1.1512316705
 O          1.3900645432        0.7170307878        1.4631374391
 O          2.5261990486        2.8623763704        1.7965544967
 C          1.5777737367        2.3735978425       -0.6063574667
 C          2.0190854733        1.3357666109       -1.4015661251
 C          2.1351803013        1.5352010634       -2.7672420265
 C          1.8139141571        2.7687310866       -3.3106480197
 C          1.3805856524        3.8054246168       -2.4979496137
 C          1.2617459186        3.6108103665       -1.1314284042
 H          0.9228702518        4.3905081083       -0.4697924577
 H          1.1305933144        4.7625916863       -2.9267411720
 H          1.8984365098        2.9188043627       -4.3753457269
 H          2.4596408158        0.7235261252       -3.3983514072
 H          2.2427246890        0.3852850489       -0.9419963239
 H          0.2033985287        3.4993202891        2.4290728075
 H         -2.0037922966        3.1674613070        3.2898430500
 H         -4.1383213136        1.9499439190        3.0878583731
 H         -4.4774329412        0.3143815368        1.2882977304
 H         -2.7057014896        0.1689639531       -1.6590149002
 C         -3.8519359551       -1.2928691186       -0.5958119401
 C         -5.1792718361       -0.8623426793       -1.1421084624
 C         -4.3927090647       -1.9302070029       -1.8392453033
 H         -4.7424821511       -2.9501699638       -1.7852892937
 H         -3.9084112561       -1.6838359944       -2.7731177286
 H         -6.0737923222       -1.1515059605       -0.6114042158
 H         -5.2365188520        0.1092628083       -1.6089573526
 H         -3.8370930617       -1.8914022887        0.3074847225
