  62
        -98.93893278
 C          1.8326554341        0.8212570429        0.4425510732
 C          2.4952605510        0.2907720282       -0.6882340717
 C          3.6069219326       -0.6415099581       -0.4203030623
 C          3.9138321957       -0.9605727524        0.8507332823
 C          4.9587983405       -1.8981068685        1.4194092435
 C          6.1014190229       -2.4157811842        0.5494804784
 C          7.1025413889       -1.3495756931        0.1061388912
 H          7.6611060771       -1.0114928393        0.9826329627
 H          7.8126959391       -1.8140594540       -0.5814950057
 C          6.5003259418       -0.1152440129       -0.5605520356
 H          5.8685818113        0.4163236257        0.1539877358
 H          7.3221411609        0.5558701628       -0.8245079402
 C          5.6949398150       -0.3849367539       -1.8301743655
 H          6.3026360102       -0.9519081149       -2.5379907506
 H          5.4659856639        0.5821101436       -2.2857909912
 C          4.3617740368       -1.1254118487       -1.6245699648
 H          3.7228645007       -0.9188867022       -2.4883533396
 H          4.5089121022       -2.2019382127       -1.5793679581
 H          6.6449459369       -3.1469809581        1.1542489994
 H          5.7083911849       -2.9502482989       -0.3103855651
 H          5.3779722919       -1.3821157823        2.2891921755
 H          4.4051110001       -2.7591284479        1.8104442292
 O          3.2077449212       -0.4610320508        1.9085740257
 C          2.1663351896        0.4334453469        1.7378989557
 O          1.6200192828        0.7966207120        2.8002297340
 H         -0.4603151819       -0.4929034082        0.8667151648
 C         -0.9156558362       -0.0575209519       -0.0148278443
 C         -0.4372217669        1.1585489554       -0.4889955053
 C         -1.0385474252        1.7149934758       -1.6092628200
 C         -2.0690322538        1.0510996069       -2.2538942036
 C         -2.5293167908       -0.1670901484       -1.7910513972
 C         -1.9483416101       -0.7221725729       -0.6569225072
 N         -2.4264103667       -1.9474652156       -0.1622682800
 S         -4.0845461616       -2.1566427893       -0.0716074808
 O         -4.2907408857       -3.0876974463        1.0158467051
 O         -4.5915940432       -2.5710415270       -1.3561317432
 C         -4.7415325758       -0.5502891859        0.3443383072
 C         -4.3057739114        0.0500549249        1.5090953339
 C         -4.7818521422        1.3101816459        1.8320604104
 C         -5.6817638863        1.9451441060        0.9895376626
 C         -6.1144674065        1.3265219390       -0.1728369379
 C         -5.6395879828        0.0670313038       -0.5022091515
 H         -5.9456374307       -0.4487121850       -1.3977677433
 H         -6.8156811041        1.8218871567       -0.8247435448
 H         -6.0471310720        2.9277794777        1.2428369424
 H         -4.4451960773        1.7920754796        2.7360500212
 H         -3.6078608249       -0.4697853359        2.1462953247
 H         -1.9697060653       -2.2557793988        0.6830170712
 H         -3.3194488767       -0.7028306211       -2.2916398123
 H         -2.5181869309        1.4880467676       -3.1324210941
 H         -0.6934313452        2.6629271980       -1.9867663674
 C          0.6945462322        1.8111286263        0.2677746310
 H          0.3345158445        2.0370398822        1.2821644317
 C          1.1979053691        3.0902313186       -0.3663548889
 C          0.4896174280        4.3853152079       -0.1092769780
 C          1.8310936415        4.1295162464        0.5074050878
 H          2.6866504341        4.6691751507        0.1298568658
 H          1.8790091685        3.9250565822        1.5674394579
 H          0.4249828410        5.1061523552       -0.9101465484
 H         -0.3759307747        4.3617333929        0.5351530014
 H          1.6339169989        2.9276341284       -1.3449723328
 O          2.1774785215        0.5751098874       -1.8716685625
