  62
        -98.94703392
 C         -1.5171358474       -1.0719255094        0.0815944417
 C         -2.5300482833       -0.6141896047        0.9545272950
 C         -3.1055080925        0.6988538280        0.6390043957
 C         -2.6184305561        1.3962005058       -0.4042571328
 C         -3.1400250999        2.7271501552       -0.8615292610
 C         -4.2441025108        2.5625669175       -1.9154842458
 C         -5.3340019027        1.5675734570       -1.5165600350
 H         -6.0731516926        1.5554862358       -2.3202733710
 H         -4.8994024278        0.5669104586       -1.4626025678
 C         -6.0299628198        1.8888575157       -0.1866918659
 H         -7.1075213965        1.7696091468       -0.3170194879
 H         -5.8491819790        2.9297028245        0.0840629897
 C         -5.6200530188        0.9851364089        0.9774690365
 H         -5.7109191969       -0.0619352267        0.6779947665
 H         -6.3194587898        1.1524567518        1.8008849199
 C         -4.2056489239        1.2062898312        1.5289022496
 H         -4.0587694064        2.2644800955        1.7568063667
 H         -4.1201702083        0.6408532505        2.4619261307
 H         -4.6911460601        3.5408449567       -2.1010739609
 H         -3.7857803186        2.2158957543       -2.8444466820
 H         -3.5206786839        3.2758650227       -0.0019590236
 H         -2.3091852707        3.2868856240       -1.2950351591
 O         -1.6179239301        0.9414598524       -1.1980770148
 C         -1.0303439231       -0.2903592620       -0.9673824786
 O         -0.1100695394       -0.5788366139       -1.7559917054
 O         -2.9271890574       -1.2707881093        1.9574518697
 C         -0.8634164152       -2.4176504527        0.3456375354
 C          0.6199129223       -2.2173545888        0.5275348563
 C          1.5885939598       -2.9929132555       -0.0960166938
 C          2.9327959918       -2.6929441717        0.0482142665
 C          3.3371923362       -1.6023571598        0.7964081700
 C          2.3760616366       -0.8371761748        1.4423002239
 C          1.0369080449       -1.1624848258        1.3307993121
 H          0.2968832828       -0.5472712973        1.8287469838
 N          2.7880881125        0.3437212467        2.1307317052
 S          2.5513458237        1.6894581803        1.1306738802
 O          3.0702960040        2.8224196249        1.8690499158
 O          1.1662411716        1.8066540368        0.7234831528
 C          3.6043281974        1.3143999693       -0.2489533920
 C          4.9467695767        1.6244263180       -0.1445575410
 C          5.7946835985        1.2855626392       -1.1861062535
 C          5.2876480913        0.6391810412       -2.3038506719
 C          3.9381097959        0.3339263972       -2.3901365455
 C          3.0811102578        0.6716198101       -1.3534032438
 H          2.0271849569        0.4381290957       -1.3913582751
 H          3.5397416576       -0.1724117381       -3.2546448603
 H          5.9476887195        0.3701323634       -3.1134316265
 H          6.8446588526        1.5215679641       -1.1222278122
 H          5.2901122493        2.1266916015        0.7448617982
 H          2.2597119117        0.4995835114        2.9802085770
 H          4.3766724391       -1.3318362437        0.8841105594
 H          3.6717949000       -3.3008630040       -0.4499547156
 H          1.2882779613       -3.8242332978       -0.7126526242
 H         -1.2919321811       -2.7732766492        1.2947041107
 C         -1.2118310912       -3.4023737731       -0.7506508063
 C         -1.2698331244       -4.8714792501       -0.4586851835
 C         -2.5343744589       -4.1046848374       -0.6991705985
 H         -3.0698104760       -4.2641531473       -1.6230217744
 H         -3.1748294067       -3.8915854772        0.1443876044
 H         -0.9395765079       -5.5617824176       -1.2199780355
 H         -1.0556458038       -5.1894455949        0.5503482259
 H         -0.8515577163       -3.0839275819       -1.7225665839
