  62
        -98.94953296
 C         -1.6155192810        0.8466976154        0.7013370649
 C         -1.4566040610        1.6271778924       -0.4688493143
 C         -0.4417099848        2.6890495517       -0.3980012453
 C          0.2845646188        2.8344564070        0.7246088392
 C          1.3450837697        3.8765035370        0.9361144700
 C          2.7410444807        3.3789146638        0.5391666119
 C          2.8065276713        2.7363453957       -0.8464750677
 H          3.8516862628        2.4795199634       -1.0372488801
 H          2.2480554734        1.7974223852       -0.8503705170
 C          2.2816949930        3.6192542292       -1.9865454192
 H          2.2616149564        4.6645848476       -1.6742260101
 H          2.9720456112        3.5437864700       -2.8294201324
 C          0.9007825583        3.2111978207       -2.5044177179
 H          0.8851798124        2.1308302321       -2.6742418513
 H          0.7384769133        3.7002656969       -3.4691420777
 C         -0.2844524465        3.5752967054       -1.6006954712
 H         -0.2112470248        4.6239729006       -1.3021907451
 H         -1.1999864884        3.4472688498       -2.1859566026
 H          3.4282410217        4.2267644741        0.5771172062
 H          3.0738855250        2.6425326576        1.2746635757
 H          1.0890448138        4.7611324101        0.3556877560
 H          1.3539058523        4.1401996217        1.9955533817
 O          0.1393840012        2.0302931517        1.8098089430
 C         -0.8052952734        1.0150414433        1.8226670736
 O         -0.8261707535        0.3455873599        2.8752329557
 H         -0.2621525978       -1.2983398566        0.2572538954
 C         -0.9886239895       -1.6915449245       -0.4388450879
 C         -2.3113197855       -1.2801279805       -0.3372389906
 C         -3.2408906665       -1.8097984920       -1.2218612569
 C         -2.8394869053       -2.7006611521       -2.2030505378
 C         -1.5120973820       -3.0655398586       -2.3333740994
 C         -0.5767780938       -2.5510714898       -1.4422317984
 N          0.7813180067       -2.8933843401       -1.5257274331
 S          1.9334385131       -1.7335780023       -1.1586031601
 O          1.4962766842       -0.4053057727       -1.5155585791
 O          3.1344688369       -2.2034360332       -1.8189990540
 C          2.1575679531       -1.8786319092        0.6005562690
 C          2.3125716057       -3.1386913081        1.1436972537
 C          2.5013599134       -3.2575573172        2.5109748587
 C          2.5333781283       -2.1224304860        3.3072848916
 C          2.3836051616       -0.8641856260        2.7461398390
 C          2.1967025501       -0.7401915646        1.3791905541
 H          2.0591819194        0.2206272495        0.9080350267
 H          2.3916117850        0.0200001871        3.3632934359
 H          2.6720283582       -2.2159681447        4.3727933289
 H          2.6181876739       -4.2337889893        2.9534152649
 H          2.2783314466       -3.9965630787        0.4930729367
 H          1.0369895998       -3.4401447382       -2.3350864430
 H         -1.1978214652       -3.7364869632       -3.1183804181
 H         -3.5693624958       -3.1016184899       -2.8900269546
 H         -4.2754454768       -1.5159931944       -1.1537314392
 C         -2.6428849093       -0.2720712928        0.7360825395
 H         -2.5254221726       -0.7622074076        1.7138991962
 C         -4.0458292188        0.2875542254        0.6336110902
 C         -5.1962535283       -0.4427126509        1.2571538278
 C         -4.6985362237        0.8320958775        1.8673083459
 H         -5.3061702039        1.7201833495        1.7798332408
 H         -4.1384078099        0.7757804982        2.7894840800
 H         -6.1506102537       -0.4283353893        0.7527109483
 H         -4.9818193124       -1.3670295530        1.7718018293
 H         -4.2156185487        0.8161716496       -0.2972679910
 O         -2.1440616532        1.4648740361       -1.5111487537
