  62
        -98.94532097
 C         -2.6377581239       -1.0979453450        0.2997974398
 C         -2.5989926866       -0.3346540373       -0.8925118102
 C         -3.2620540019        0.9763544181       -0.8343193912
 C         -3.8525494791        1.3681651959        0.3093434742
 C         -4.5074572340        2.7012282822        0.5246602862
 C         -3.5089842566        3.7245023139        1.0840433888
 C         -2.1893517978        3.7873223804        0.3138013064
 H         -1.5757174778        4.5626904096        0.7783718463
 H         -1.6516867631        2.8433626606        0.4373146388
 C         -2.3420597328        4.0860038579       -1.1841696314
 H         -3.3267452908        4.5132696697       -1.3781305357
 H         -1.5996060449        4.8349940842       -1.4674663314
 C         -2.1240852772        2.8779082098       -2.0973514509
 H         -1.1762415642        2.3933415880       -1.8443381698
 H         -2.0378953029        3.2410913577       -3.1250521719
 C         -3.2340147677        1.8187971037       -2.0780488728
 H         -4.2013967402        2.2974812432       -2.2432516256
 H         -3.0446412306        1.1268859147       -2.9038589044
 H         -3.9812143999        4.7083629593        1.0764642314
 H         -3.2870007184        3.4619390473        2.1210688784
 H         -4.9168482198        3.0557319273       -0.4190064912
 H         -5.3214119091        2.5735265278        1.2401670548
 O         -3.8724199609        0.6050094075        1.4324717481
 C         -3.2495255566       -0.6328761692        1.4627114928
 O         -3.3044594174       -1.2098790259        2.5684750062
 O         -2.0406194668       -0.7246891937       -1.9503375703
 C         -1.9422262382       -2.4471791272        0.3559290263
 C         -0.4718025405       -2.2575838104        0.0689995994
 C          0.2369781715       -3.0028616848       -0.8628976700
 C          1.5777727432       -2.7436276217       -1.0921932012
 C          2.2397289063       -1.7481504813       -0.3977985940
 C          1.5421333006       -1.0026580393        0.5440916464
 C          0.2018076443       -1.2665931069        0.7733478377
 H         -0.3428277700       -0.6806177201        1.5052652652
 N          2.2088710572        0.0084120326        1.2640589340
 S          2.9548924550        1.2174958597        0.3620103822
 O          3.0053725063        2.3665253949        1.2404355675
 O          2.3018087252        1.4097189591       -0.9119293941
 C          4.6059524317        0.5967551971        0.1222391468
 C          5.1020557259        0.4297749183       -1.1556720572
 C          6.3901819834       -0.0575627256       -1.3152160250
 C          7.1542143101       -0.3670285839       -0.2003678944
 C          6.6418438083       -0.1904326212        1.0765040486
 C          5.3556966126        0.2975146575        1.2430260282
 H          4.9202332863        0.4530378062        2.2159324319
 H          7.2390707020       -0.4320641717        1.9408869507
 H          8.1551201990       -0.7481541081       -0.3274815956
 H          6.7902524579       -0.1949425493       -2.3069199256
 H          4.4678734027        0.6775340570       -1.9920359653
 H          1.6362026040        0.4255461817        1.9844850223
 H          3.2813873194       -1.5396706229       -0.5794779038
 H          2.1144327468       -3.3248164382       -1.8264006477
 H         -0.2627950023       -3.7776652478       -1.4203381651
 H         -2.0449750942       -2.7998071223        1.3927329476
 C         -2.6227058767       -3.4362225988       -0.5659548719
 C         -2.5619989900       -4.9038547345       -0.2702111697
 C         -3.8448420507       -4.1533803639       -0.0797161007
 H         -4.6529156182       -4.3238853083       -0.7750260471
 H         -4.1738691566       -3.9443654170        0.9280798058
 H         -2.4924787747       -5.5942949687       -1.0970789571
 H         -2.0216119243       -5.2138486298        0.6113446625
 H         -2.6080549385       -3.1179962134       -1.6017834564
