  62
        -98.93949658
 C         -1.1324687916       -1.0104601710       -0.5212561414
 C         -2.2384417176       -1.1628033736        0.3524133217
 C         -2.9913997203        0.0520589626        0.7008561686
 C         -2.5864058834        1.2355473619        0.2105802481
 C         -3.1540769236        2.6093608102        0.4696596293
 C         -4.6810678166        2.7526171190        0.5060482938
 C         -5.4396671862        1.8289448985       -0.4582391403
 H         -6.1334867848        2.4276247979       -1.0511273770
 H         -4.7403236153        1.3574420881       -1.1506235274
 C         -6.2486128198        0.7482876065        0.2627203758
 H         -6.7504342689        1.2000844568        1.1211401133
 H         -7.0242231300        0.3801549270       -0.4131018327
 C         -5.4466414856       -0.4641376750        0.7340147005
 H         -6.1117546402       -1.0989341899        1.3243762060
 H         -5.1236001490       -1.0532027142       -0.1284969084
 C         -4.1977446392       -0.1471578945        1.5731606012
 H         -4.3663514339        0.7052669921        2.2271763682
 H         -3.9777551451       -1.0205326608        2.1934247449
 H         -5.0390351019        2.5808407954        1.5201159882
 H         -4.9050806236        3.7936546859        0.2666996511
 H         -2.7346273478        2.9727948109        1.4130543077
 H         -2.7475957857        3.2392402770       -0.3256241970
 O         -1.5122759090        1.3429693939       -0.6173648004
 C         -0.7570450764        0.2440431633       -0.9999116889
 O          0.1870279137        0.5381652349       -1.7589417878
 O         -2.5839271195       -2.2790203815        0.8275227786
 C         -0.3417173534       -2.2684813271       -0.8379620993
 C          0.8030009564       -2.4187147623        0.1367019738
 C          1.0019824055       -3.6010370712        0.8395828853
 C          2.0318071132       -3.7077328598        1.7577205420
 C          2.8607196381       -2.6303240361        2.0141946261
 C          2.6682622715       -1.4439778932        1.3156959789
 C          1.6670058601       -1.3571414201        0.3614442462
 H          1.5382003387       -0.4361801976       -0.1830929482
 N          3.4702878019       -0.3175685577        1.5512626043
 S          2.7597590126        1.2018553046        1.5225889262
 O          3.6359526363        2.0173334486        2.3424334946
 O          1.3786582520        1.1558483947        1.9479396601
 C          2.9028016594        1.7594986304       -0.1595945037
 C          1.9746568282        2.6620022069       -0.6355859188
 C          2.1150419459        3.1512635053       -1.9239118898
 C          3.1752020295        2.7296204821       -2.7092840581
 C          4.0998785793        1.8223199896       -2.2155956222
 C          3.9683023750        1.3330596960       -0.9264783920
 H          4.6640691051        0.6218682104       -0.5129983432
 H          4.9200987166        1.4916052664       -2.8325478749
 H          3.2769193508        3.1065000013       -3.7149778898
 H          1.3886544354        3.8478436227       -2.3108359415
 H          1.1509853258        2.9479280660       -0.0000117662
 H          4.1281905159       -0.4081732061        2.3120919813
 H          3.6442069624       -2.7010433607        2.7532378548
 H          2.1769161283       -4.6315461888        2.2968604230
 H          0.3314323440       -4.4320832484        0.6786279898
 H         -1.0365765962       -3.1022240347       -0.6659686341
 C          0.1621167123       -2.3476647664       -2.2653504793
 C          0.4469329454       -3.6911800599       -2.8643774153
 C         -0.7347377085       -2.8969160503       -3.3322620342
 H         -0.7030343736       -2.4452894853       -4.3121389813
 H         -1.7202577210       -3.2258378017       -3.0356751186
 H          1.2945019828       -3.7892323791       -3.5247501493
 H          0.2605803726       -4.5624446743       -2.2551306187
 H          0.8113742842       -1.5252244986       -2.5351254699
