  62
        -98.94479880
 C         -1.9881388903       -0.9283265717       -0.4415800938
 C         -3.0548798389       -1.2428551341        0.4375061075
 C         -4.3505064895       -0.6343476745        0.1196116420
 C         -4.4659732814        0.1642400558       -0.9570034311
 C         -5.7239916874        0.8460709897       -1.4220511211
 C         -6.0122517264        2.1751080389       -0.7103749728
 C         -6.4828048751        2.0489299229        0.7392212000
 H         -6.8542221445        3.0302224813        1.0413143716
 H         -7.3220666781        1.3544049322        0.7884321413
 C         -5.3902526787        1.6106522511        1.7245602889
 H         -4.4079884113        1.7583067932        1.2692888948
 H         -5.4274578816        2.2435680104        2.6141078560
 C         -5.5056272884        0.1607459574        2.1952190108
 H         -6.4258442410        0.0342588037        2.7698246324
 H         -4.6628626069       -0.0519614845        2.8576862891
 C         -5.4909261793       -0.8739443928        1.0624068484
 H         -5.3549659338       -1.8640119122        1.5043071867
 H         -6.4389831063       -0.8575600509        0.5254129014
 H         -5.1128332386        2.7942358624       -0.7490772723
 H         -6.7919808412        2.6867400485       -1.2794238482
 H         -5.5926886318        1.0479235164       -2.4873449021
 H         -6.5732972701        0.1736296221       -1.2979508371
 O         -3.4205020284        0.4352838577       -1.7816660524
 C         -2.1551090487       -0.0812619284       -1.5370786406
 O         -1.2946318660        0.2769087171       -2.3640673785
 H          1.3097292005       -0.1755386340       -1.5753635634
 C          1.2205594859        0.1860073391       -0.5633169310
 C          0.2919190419       -0.3833262406        0.2937252611
 C          0.1821543949        0.1208379817        1.5868555826
 C          0.9804400574        1.1671455534        2.0094438068
 C          1.9050344138        1.7350754324        1.1499105991
 C          2.0150222688        1.2444106700       -0.1436205355
 N          2.9685269293        1.8100120916       -1.0155759997
 S          4.5575156736        1.7261763379       -0.4884000911
 O          4.7908883952        2.7558546716        0.4926096245
 O          5.3703456252        1.7904271065       -1.6822695943
 C          4.6768099893        0.1182202195        0.2749064173
 C          4.6612060983       -0.9929706016       -0.5446859053
 C          4.6691740792       -2.2519286628        0.0325210283
 C          4.6841789119       -2.3771848841        1.4133406657
 C          4.7006867493       -1.2519136134        2.2223728823
 C          4.6939863535        0.0102669493        1.6503439752
 H          4.7056335038        0.9105574475        2.2422265066
 H          4.7130103184       -1.3528822528        3.2956404917
 H          4.6834810110       -3.3588615877        1.8603857731
 H          4.6576389655       -3.1296629648       -0.5935332338
 H          4.6554062604       -0.8565098237       -1.6142827686
 H          2.8924699972        1.4640651430       -1.9614748782
 H          2.5415664908        2.5486830417        1.4585525503
 H          0.8838481853        1.5450621636        3.0158856366
 H         -0.5452627244       -0.3180485318        2.2554928148
 C         -0.6167110262       -1.5072789646       -0.1363620376
 H         -0.7701294447       -2.1681788616        0.7274956017
 C         -0.0686833677       -2.3256079922       -1.2866345809
 C          1.1356692892       -3.1889524387       -1.0595080004
 C         -0.2100982932       -3.8165926741       -1.2600810472
 H         -0.4074799212       -4.3308236298       -2.1888076707
 H         -0.7030747504       -4.2562606826       -0.4056677551
 H          1.8640208501       -3.2742450314       -1.8513084037
 H          1.5601128715       -3.1967736614       -0.0670497412
 H         -0.1692580291       -1.8357521815       -2.2477720916
 O         -2.9290588153       -1.9986793000        1.4369091432
