  62
        -98.93536534
 C          1.9922695185       -0.6992635493        0.3652785028
 C          3.1380391387       -1.2461401444       -0.2661855691
 C          4.4199176826       -0.5532388126       -0.0513256196
 C          4.4431750558        0.5729293977        0.6849191379
 C          5.5909899101        1.4659061697        1.1075745398
 C          6.9580382594        1.3500248863        0.4385737827
 C          6.9906662460        1.7820278885       -1.0270661257
 H          6.8457927256        2.8643982620       -1.0732014219
 H          7.9833991636        1.5624846463       -1.4260312781
 C          5.9393104135        1.1385032913       -1.9277801154
 H          4.9416189165        1.4331981873       -1.5954222692
 H          6.0728057655        1.5396901955       -2.9361962430
 C          6.0025899585       -0.3846966952       -2.0221114864
 H          7.0068406690       -0.6930450224       -2.3191952990
 H          5.3109714785       -0.6940709788       -2.8103156064
 C          5.6143567782       -1.1454776690       -0.7424312265
 H          6.4553463663       -1.2220730530       -0.0572414971
 H          5.3307422914       -2.1624423768       -1.0287940973
 H          7.3467413775        0.3418083617        0.5477773138
 H          7.6318031158        2.0100467009        0.9918289118
 H          5.2246088961        2.4918214891        0.9990789926
 H          5.7168814012        1.2972414323        2.1830003983
 O          3.3090172448        1.0838875961        1.2440021422
 C          2.0649660156        0.4824774277        1.1025068536
 O          1.1490214851        1.0994432789        1.6761135766
 O          3.0955256150       -2.2834487649       -0.9797675069
 C          0.6698169653       -1.4136142289        0.1442630276
 C         -0.3742860635       -0.4358303203       -0.3284236163
 C         -0.3617301989       -0.0158505540       -1.6550126781
 C         -1.2865459232        0.9028440322       -2.1152948341
 C         -2.2397714660        1.4263935415       -1.2600464633
 C         -2.2575224373        1.0167451847        0.0665694051
 C         -1.3404028290        0.0787415650        0.5219338908
 H         -1.3521998337       -0.2182933040        1.5588727190
 N         -3.2159744915        1.5543378795        0.9432270932
 S         -4.8168996441        1.5482699810        0.4644425437
 O         -5.0419337957        2.5957868298       -0.5000386338
 O         -5.5824290262        1.6359679188        1.6876537360
 C         -5.0450716183       -0.0453922939       -0.3031364182
 C         -5.1449606456       -0.1450902991       -1.6756517627
 C         -5.2520382019       -1.4021630989       -2.2494276387
 C         -5.2541996001       -2.5310387813       -1.4453294240
 C         -5.1574727075       -2.4139931671       -0.0668633426
 C         -5.0478008602       -1.1603958338        0.5118102828
 H         -4.9781022397       -1.0289620378        1.5797574971
 H         -5.1630550490       -3.2938518304        0.5563976103
 H         -5.3336611219       -3.5085466344       -1.8943021034
 H         -5.3296071074       -1.4963440558       -3.3205844325
 H         -5.1432290714        0.7572195396       -2.2645028092
 H         -3.1132419215        1.2447883484        1.8980151455
 H         -2.9588369681        2.1566143183       -1.5944075997
 H         -1.2626086518        1.2199219010       -3.1468642705
 H          0.3913219732       -0.4134472752       -2.3214343932
 H          0.8784620719       -2.1130481287       -0.6812377186
 C          0.2004823205       -2.2620728806        1.3167855149
 C          1.1872127683       -3.0273719538        2.1455932636
 C          0.4265298440       -1.8868905432        2.7495575369
 H         -0.3516847794       -2.1143373628        3.4640844901
 H          0.9511658015       -0.9677222157        2.9576020814
 H          0.9384484671       -4.0330604734        2.4489469188
 H          2.2356059493       -2.8819200968        1.9289639240
 H         -0.7345263011       -2.7668176506        1.0922557022
