  62
        -98.93597855
 C          2.2584717489        1.4813491077        0.2115078097
 C          2.4542187317        0.4237301881       -0.7052389033
 C          3.4142853837       -0.6279009404       -0.3112601576
 C          4.0085482574       -0.5616378671        0.8928555149
 C          5.0010215264       -1.5105776402        1.5153813451
 C          4.6986252977       -3.0106904254        1.3763651944
 C          5.6541975024       -3.7380022528        0.4289346463
 H          6.6620180635       -3.3480090093        0.5856005587
 H          5.6694758864       -4.7975111837        0.6938843839
 C          5.2987779159       -3.6379297930       -1.0533569817
 H          4.4131240894       -4.2449744162       -1.2541731883
 H          6.1252140353       -4.0712786080       -1.6215529818
 C          5.0386230091       -2.2212440142       -1.5693485077
 H          5.2038302014       -2.2244255089       -2.6488759419
 H          5.7536175637       -1.5204706046       -1.1402736941
 C          3.6054298462       -1.7284644509       -1.3196984169
 H          3.1894639930       -1.3273191819       -2.2493051809
 H          2.9613451511       -2.5699138647       -1.0456192052
 H          3.6664434011       -3.1532962395        1.0586913892
 H          4.7957258220       -3.4629313302        2.3647334863
 H          5.0297904248       -1.2345557916        2.5718852980
 H          5.9920424656       -1.2931808895        1.1095336844
 O          3.7794916303        0.4702320434        1.7540465818
 C          2.9183914177        1.5026141313        1.4440355288
 O          2.8246140280        2.3738171236        2.3310989692
 O          1.8707538549        0.3348265525       -1.8203987511
 C          1.3036192815        2.6413067500       -0.0362541053
 C         -0.1132825635        2.1944089839        0.2342088396
 C         -0.7850875108        2.6179172614        1.3753039782
 C         -2.0633602085        2.1642779186        1.6494361631
 C         -2.6942723042        1.2753944835        0.7971879454
 C         -2.0262368942        0.8376483944       -0.3385028343
 C         -0.7525018348        1.3077479592       -0.6206191902
 H         -0.2309050595        0.9452484258       -1.4936982034
 N         -2.6498919351       -0.0862775130       -1.2007365305
 S         -3.1589592219       -1.5288924731       -0.5029818304
 O         -2.3598069302       -1.8724042773        0.6518139271
 O         -3.1789467093       -2.4931985472       -1.5815775119
 C         -4.8345063127       -1.1842349468       -0.0075449259
 C         -5.7140495635       -0.7234288253       -0.9678336887
 C         -7.0233340239       -0.4553666637       -0.6019229464
 C         -7.4294946817       -0.6545518847        0.7093757685
 C         -6.5352219087       -1.1210245841        1.6606725410
 C         -5.2234243968       -1.3899573529        1.3014999375
 H         -4.4906087414       -1.7469465529        2.0076314373
 H         -6.8524682015       -1.2754949601        2.6794997157
 H         -8.4490626642       -0.4448552788        0.9918855543
 H         -7.7216286883       -0.0921945904       -1.3386363076
 H         -5.3577370969       -0.5850941107       -1.9749009613
 H         -2.0976907188       -0.2824436619       -2.0246291640
 H         -3.6860060631        0.9107783432        1.0103420078
 H         -2.5723740448        2.5024810134        2.5391382242
 H         -0.2869984776        3.2903596568        2.0589073411
 H          1.5638757769        3.3995552347        0.7139993601
 C          1.4569229936        3.2579661468       -1.4121113968
 C          0.9514846699        4.6492908609       -1.6417282369
 C          2.4259623977        4.3840093880       -1.6032443498
 H          2.9852427440        4.4301611449       -2.5256152163
 H          2.9828198280        4.7161052538       -0.7389375006
 H          0.4954489744        4.8809991530       -2.5918807318
 H          0.5080342702        5.1638617819       -0.8027628249
 H          1.3624293193        2.5459512321       -2.2207851832
