  62
        -98.94354973
 C         -0.9399929343       -1.6394266654       -0.3368827689
 C         -1.2050420121       -0.2671279602       -0.5749065777
 C         -2.3374098874        0.2993678411        0.1737401178
 C         -2.9870593234       -0.4443670032        1.0846599589
 C         -4.1304384546        0.0099275335        1.9513318782
 C         -5.5029354285       -0.0685742486        1.2682993411
 C         -5.7548928237        0.9860844805        0.1899711596
 H         -6.8204006327        0.9535833131       -0.0461216893
 H         -5.5411295971        1.9752587356        0.5959967807
 C         -4.9553743976        0.7733872627       -1.1030028613
 H         -5.6161765034        0.8983566233       -1.9637216277
 H         -4.5798651811       -0.2520245179       -1.1330284023
 C         -3.7819582149        1.7355482703       -1.2877505418
 H         -3.2667407000        1.4736527855       -2.2150386429
 H         -4.1586215396        2.7558778778       -1.3864637318
 C         -2.7522520493        1.7027045180       -0.1504379106
 H         -1.8590420363        2.2383650552       -0.4791106109
 H         -3.1514300722        2.1951607990        0.7364846257
 H         -6.2605555419        0.0494667141        2.0465510457
 H         -5.6210682127       -1.0660371494        0.8385292655
 H         -4.1395567341       -0.6492462351        2.8223406237
 H         -3.9475893432        1.0294727881        2.2927791757
 O         -2.6520211237       -1.7375824226        1.3420312875
 C         -1.6444066722       -2.3634718438        0.6275721630
 O         -1.4720395241       -3.5618381134        0.9352844820
 H          1.3024236702       -0.1774571248       -0.0845476665
 C          1.8869776567       -1.0519033049        0.1480579960
 C          1.4514392064       -2.2980538967       -0.2790423242
 C          2.2167562746       -3.4160730383        0.0298677180
 C          3.3853538271       -3.2848676218        0.7598718079
 C          3.8040092657       -2.0435061907        1.2045813499
 C          3.0444595813       -0.9196146001        0.8987139161
 N          3.4400685481        0.3603664849        1.3099210647
 S          2.2918257821        1.5307727490        1.6451974645
 O          2.9971322258        2.4927730151        2.4697951951
 O          1.1018242520        0.9631370446        2.2392470423
 C          1.9201694961        2.3003312489        0.0839765454
 C          2.7468323261        2.1256325822       -1.0063050761
 C          2.4333734813        2.7717667349       -2.1911938333
 C          1.3139936903        3.5846973102       -2.2629009300
 C          0.4998467855        3.7578922150       -1.1554896664
 C          0.8032245575        3.1086478262        0.0297181265
 H          0.1876175992        3.1995595591        0.9115185803
 H         -0.3738352570        4.3880404553       -1.2132704553
 H          1.0694105914        4.0817853131       -3.1884338706
 H          3.0614897310        2.6326829083       -3.0565724303
 H          3.6069385810        1.4815921666       -0.9243453849
 H          4.2236847218        0.3971328657        1.9445985512
 H          4.7063836686       -1.9431087914        1.7880930628
 H          3.9705888470       -4.1602446733        0.9974394439
 H          1.8803462763       -4.3923301718       -0.2871811359
 C          0.1603480619       -2.4137939198       -1.0467302989
 H         -0.1536780254       -3.4694687068       -1.0072921840
 C          0.3054842882       -2.0379435992       -2.5148950996
 C          1.4385843288       -1.2231652174       -3.0537371300
 C          1.3663530122       -2.6884934387       -3.3531748380
 H          1.1128908328       -3.0038765224       -4.3539516496
 H          2.0681011315       -3.3359615495       -2.8491901517
 H          2.1903307752       -0.8774413447       -2.3623298647
 H          1.2131257404       -0.5163373057       -3.8369925894
 H         -0.6606728718       -1.8851860893       -2.9851126088
 O         -0.5528534827        0.4627480525       -1.3627346893
