  62
        -98.94098669
 C          1.5782993947        0.0783931051       -0.8063144634
 C          2.8748463364        0.1879759956       -1.3716917099
 C          3.9645220261       -0.4490968072       -0.6245750110
 C          3.6973980420       -1.0812979604        0.5321798335
 C          4.6948796609       -1.8001038125        1.3996923429
 C          5.4591340812       -0.8827635178        2.3640871662
 C          6.5067252867        0.0197073368        1.7109628912
 H          7.1116783632        0.4428929576        2.5153884862
 H          7.1689447460       -0.5840506553        1.0895926986
 C          5.9213614742        1.1684645465        0.8776561008
 H          4.8713004487        1.3125034268        1.1427971902
 H          6.4424028813        2.0973266159        1.1207296010
 C          6.0273426737        0.9725083065       -0.6348007085
 H          5.5499171767        1.8246359149       -1.1255041212
 H          7.0788629548        0.9606307427       -0.9302648948
 C          5.3595264824       -0.3074181256       -1.1543162163
 H          5.9581680510       -1.1785244142       -0.8884707928
 H          5.2978930724       -0.2433449686       -2.2435632919
 H          4.7375741574       -0.2686235936        2.9077949612
 H          5.9649844047       -1.5228909106        3.0906327234
 H          4.1288844147       -2.5239490506        1.9898232260
 H          5.4036252984       -2.3411675377        0.7720782910
 O          2.4444676467       -1.1530670606        1.0502283493
 C          1.3567788870       -0.5586623726        0.4165683735
 O          0.2893963417       -0.6814302460        1.0421073086
 O          3.1108179197        0.7926860679       -2.4517160722
 C          0.4348855519        0.7508412757       -1.5456858467
 C         -0.3643557838        1.5979882926       -0.5902415088
 C          0.2266710567        2.7312421621       -0.0375655519
 C         -0.4611104704        3.5130595219        0.8698987964
 C         -1.7515804330        3.1818029668        1.2442661124
 C         -2.3476807206        2.0490587756        0.7025808573
 C         -1.6562693013        1.2699302447       -0.2146590578
 H         -2.1282720068        0.3913208611       -0.6193051813
 N         -3.6299570135        1.6638710451        1.1019744733
 S         -4.6170953898        0.6890265637        0.1894313306
 O         -4.5875195740        1.0550830958       -1.2086843886
 O         -5.9110923557        0.7921019021        0.8316677197
 C         -3.9975704208       -0.9685031665        0.3955617656
 C         -4.2889197468       -1.8913117368       -0.5900535163
 C         -3.8531583588       -3.1976607611       -0.4385229291
 C         -3.1337038754       -3.5565150309        0.6907862453
 C         -2.8503457497       -2.6185891875        1.6707940963
 C         -3.2887372620       -1.3119985291        1.5282891794
 H         -3.0664662315       -0.5628692707        2.2693849613
 H         -2.2798830460       -2.8951860378        2.5426525351
 H         -2.7878538319       -4.5718981986        0.8049560513
 H         -4.0705141062       -3.9284116212       -1.2014011534
 H         -4.8382370555       -1.5656604048       -1.4594437547
 H         -4.1230552451        2.2857507901        1.7225778929
 H         -2.2890776943        3.7873243226        1.9579698645
 H          0.0091125819        4.3890676993        1.2910595274
 H          1.2383643538        2.9855555461       -0.3239033959
 H          0.9333180582        1.4244455322       -2.2629707821
 C         -0.4264603589       -0.1946241459       -2.3687251747
 C          0.1749606391       -1.3943318696       -3.0358779657
 C         -0.7926974394       -1.5718815031       -1.9062735550
 H         -1.7850629775       -1.9348880404       -2.1315038062
 H         -0.4209055137       -1.8983165889       -0.9481010941
 H         -0.1468749698       -1.6425206671       -4.0360091657
 H          1.2201430287       -1.5945073190       -2.8496703749
 H         -1.1852488578        0.3420623660       -2.9317776308
