  62
        -98.94009608
 C         -1.9550592503       -1.4115770894       -0.0582579496
 C         -1.7580708299       -0.0522464296       -0.4046820399
 C         -2.9812148796        0.7275991106       -0.6556322907
 C         -4.1825923398        0.1328038309       -0.5502195610
 C         -5.5024815195        0.8218059911       -0.7376520718
 C         -6.0402405600        1.3657664816        0.5931185578
 C         -5.0154358902        2.1730781717        1.3901896580
 H         -4.2103245805        1.5090927916        1.7136185286
 H         -5.5155939605        2.5325916421        2.2921978477
 C         -4.4141969396        3.3637486013        0.6303638379
 H         -4.3977981797        4.2299669715        1.2952624576
 H         -5.0490531392        3.6199451512       -0.2187086725
 C         -2.9793940295        3.1490403709        0.1446367586
 H         -2.3592922899        2.8008059910        0.9749537189
 H         -2.5817084291        4.1159810307       -0.1752834416
 C         -2.8094586791        2.1737079505       -1.0269317011
 H         -1.7822555090        2.2718129301       -1.3896133506
 H         -3.4881928487        2.4491593803       -1.8366478314
 H         -6.3633578204        0.5218976119        1.2072457579
 H         -6.9130568398        1.9872519617        0.3847484572
 H         -5.3846852391        1.6336810208       -1.4526958420
 H         -6.2146048695        0.0978679811       -1.1376260019
 O         -4.3328569002       -1.1723717290       -0.2076220406
 C         -3.2311907605       -1.9663997191        0.0679529901
 O         -3.5127380508       -3.1310998989        0.4135196103
 H          1.9519905496       -2.0356574602       -0.0686832177
 C          1.5735157393       -1.5661864198        0.8259653820
 C          0.2205441992       -1.6199635495        1.1225464714
 C         -0.2264138012       -0.9924017390        2.2831730311
 C          0.6469193486       -0.3034468589        3.1014482312
 C          1.9959392187       -0.2435386893        2.7960036018
 C          2.4561317591       -0.8833231298        1.6550035422
 N          3.8358434992       -0.8394380801        1.3562854627
 S          4.4882018797        0.6294389196        0.8822776926
 O          5.9173438097        0.4204302993        0.8161118432
 O          4.0318760195        1.6554400200        1.7833941920
 C          3.8569578105        0.9021722992       -0.7641628978
 C          4.7017315709        0.7245700787       -1.8431246974
 C          4.1964223915        0.8782728384       -3.1236554676
 C          2.8575274716        1.1930906486       -3.3035635183
 C          2.0235708812        1.3634212091       -2.2099526687
 C          2.5232851806        1.2186116094       -0.9256389985
 H          1.8801736303        1.3348076698       -0.0685511688
 H          0.9767258713        1.5893754693       -2.3339870392
 H          2.4604870421        1.3040917684       -4.3005096985
 H          4.8437900818        0.7469693780       -3.9759184873
 H          5.7338958708        0.4759182185       -1.6553198369
 H          4.1234044994       -1.5489499404        0.6960012531
 H          2.6899110686        0.3028969807        3.4132292219
 H          0.2771902583        0.1898670214        3.9881414209
 H         -1.2799656813       -1.0376609687        2.5266219506
 C         -0.7864238006       -2.3316812095        0.2510755312
 H         -1.2217681010       -3.1514000393        0.8467227613
 C         -0.1652760702       -2.9737801901       -0.9823739283
 C         -0.9204790097       -3.0789346103       -2.2728480586
 C          0.2567192505       -2.1590566905       -2.1677101484
 H          1.1664969506       -2.4303489809       -2.6836387079
 H          0.0791926307       -1.0965850705       -2.1241492188
 H         -1.9095641296       -2.6464304701       -2.3144482491
 H         -0.8186298796       -3.9860082305       -2.8497582083
 H          0.4577261595       -3.8257473201       -0.7271412178
 O         -0.6307371897        0.4937747902       -0.5042685896
