  62
        -98.94284963
 C         -2.0951554555       -1.5103228304        0.1180088757
 C         -1.7157045233       -0.3730654230       -0.6390596893
 C         -2.7606511819        0.6495002519       -0.8212887826
 C         -3.9824517444        0.4558606561       -0.2950586338
 C         -5.1170586665        1.4353158171       -0.3678019725
 C         -5.1156895374        2.3758446340        0.8455033889
 C         -3.7544788439        3.0088376860        1.1346571368
 H         -3.8823916034        3.6761785760        1.9896932907
 H         -3.0546348430        2.2272567991        1.4395197953
 C         -3.1569261304        3.7927636325       -0.0418798796
 H         -2.7642130177        4.7399017991        0.3336168483
 H         -3.9396407415        4.0309724393       -0.7631591266
 C         -2.0046090375        3.0844548799       -0.7567259465
 H         -1.2621748562        2.7599057869       -0.0234423699
 H         -1.5237933500        3.8101431131       -1.4180506256
 C         -2.3940584568        1.8731306076       -1.6132383963
 H         -3.2016843922        2.1469654165       -2.2953351690
 H         -1.5219241891        1.5902778231       -2.2099336677
 H         -5.8556255646        3.1600662863        0.6748586328
 H         -5.4226004032        1.8057137008        1.7255664881
 H         -5.0368181895        2.0110553200       -1.2878058873
 H         -6.0540271968        0.8756887135       -0.3813342889
 O         -4.3112375798       -0.6511013282        0.4187901081
 C         -3.3756421172       -1.6417235305        0.6637540850
 O         -3.7987195120       -2.5778170846        1.3714703093
 O         -0.5789189946       -0.2046305107       -1.1481385869
 C         -1.1188256400       -2.6315863812        0.4360727188
 C          0.1897153075       -2.0459732578        0.9033661128
 C          0.2508959458       -1.4460392211        2.1577809999
 C          1.4232574379       -0.8699665327        2.6094287591
 C          2.5568721415       -0.8709795007        1.8156475489
 C          2.4992906439       -1.4504350375        0.5551946834
 C          1.3249114498       -2.0431882525        0.1099695057
 H          1.2889172208       -2.4736559042       -0.8783690931
 N          3.6354802352       -1.4373479690       -0.2692470731
 S          4.5933816055       -0.0683478008       -0.3009754858
 O          5.2498704685       -0.1026529571       -1.5896522163
 O          5.4706815668       -0.0700081071        0.8448220062
 C          3.4874210793        1.3284247408       -0.2076652886
 C          3.6445828740        2.2553801115        0.8028910595
 C          2.7842111706        3.3398183662        0.8578320782
 C          1.7874782562        3.4781076785       -0.0956187054
 C          1.6463036842        2.5405421054       -1.1067424760
 C          2.5014528587        1.4532098243       -1.1654223578
 H          2.4014260562        0.7081020533       -1.9375468330
 H          0.8667365952        2.6407977149       -1.8438515463
 H          1.1154667466        4.3209406920       -0.0515720540
 H          2.8921221058        4.0710405985        1.6428957483
 H          4.4334972271        2.1091290277        1.5230650565
 H          3.4693246252       -1.7893525583       -1.2004256112
 H          3.4816097962       -0.4336604078        2.1552141783
 H          1.4569062104       -0.4136382900        3.5871425684
 H         -0.6385761369       -1.4326297929        2.7733295330
 H         -1.5711342209       -3.1681226380        1.2857430696
 C         -0.9510021713       -3.6545130008       -0.6779112425
 C         -2.1245134514       -4.0696151645       -1.5127834379
 C         -1.0023457599       -3.2936800179       -2.1309290524
 H         -0.3382396395       -3.8103771158       -2.8090846426
 H         -1.1716065174       -2.2604155156       -2.3887985405
 H         -2.2328433619       -5.1134640046       -1.7661388986
 H         -3.0629492440       -3.5636517779       -1.3379181867
 H         -0.2587202724       -4.4428252171       -0.3967152460
