  62
        -98.94183780
 C         -2.2446940068       -0.7559965032        0.1296068329
 C         -3.4229779831       -0.9705014570        0.8933446838
 C         -4.3350932610        0.1706966854        1.0188714799
 C         -3.9965285786        1.3547415882        0.4786257879
 C         -4.8008129958        2.6243028859        0.5501432802
 C         -5.8978137002        2.7295090818       -0.5182234894
 C         -7.1054172525        1.8163427841       -0.3025807151
 H         -7.4876394947        1.9549551837        0.7091810933
 H         -7.8838102765        2.1468424165       -0.9931423135
 C         -6.8256813480        0.3273489262       -0.5501797210
 H         -7.6267177177       -0.0974415856       -1.1592859049
 H         -5.9001715629        0.2215553161       -1.1211699550
 C         -6.7244012622       -0.5182875302        0.7194583976
 H         -7.6884165782       -0.5249747178        1.2326321632
 H         -6.4907459289       -1.5459467261        0.4293494011
 C         -5.6485140350       -0.0478627615        1.7071561250
 H         -5.9711097614        0.8640381125        2.2090834684
 H         -5.5044693463       -0.8294653985        2.4570151075
 H         -5.4543109671        2.5238446678       -1.4953608755
 H         -6.2477344058        3.7643908445       -0.5242651540
 H         -5.2454595216        2.7205257836        1.5411356504
 H         -4.0963354002        3.4460545154        0.4036016102
 O         -2.8335130612        1.5389494893       -0.1980139028
 C         -1.9394819360        0.4943538878       -0.4124354772
 O         -0.9467842155        0.8274077671       -1.0871227664
 H          0.7937910913       -1.1650017525       -1.6002043178
 C          1.0433549812       -1.1361237306       -0.5509688346
 C          0.0969047002       -1.5115975525        0.3884462419
 C          0.4272410016       -1.4336217459        1.7380583266
 C          1.6765302116       -0.9943302143        2.1335748828
 C          2.6162394757       -0.6103272572        1.1927251975
 C          2.2879828316       -0.6643317918       -0.1547938274
 N          3.2277614716       -0.2606444180       -1.1178742173
 S          4.0999383852        1.1488436497       -0.8543549108
 O          3.3813238918        2.0964786827       -0.0349126708
 O          4.4896361318        1.6003513087       -2.1729533547
 C          5.5540646757        0.5802292631        0.0062608882
 C          6.2855947429       -0.4478079507       -0.5557463165
 C          7.4245655948       -0.8932080961        0.0957139801
 C          7.8133390303       -0.3046949399        1.2899533732
 C          7.0709590247        0.7290873681        1.8395018334
 C          5.9299683983        1.1785705223        1.1929197309
 H          5.3186776720        1.9760194254        1.5852318644
 H          7.3746713807        1.1864941100        2.7674455418
 H          8.7001431464       -0.6532564113        1.7953041180
 H          8.0046244360       -1.6967048509       -0.3288435287
 H          5.9515148083       -0.8755916021       -1.4860420897
 H          2.8639116395       -0.2777750007       -2.0600078721
 H          3.5857535734       -0.2488161271        1.4939897612
 H          1.9211654970       -0.9434672382        3.1837232541
 H         -0.3139540700       -1.7113334044        2.4747965316
 C         -1.2931191003       -1.9327622109       -0.0104107194
 H         -1.6558569145       -2.6603262775        0.7334761275
 C         -1.3387376462       -2.6370061141       -1.3583049183
 C         -2.6492309501       -2.8577186412       -2.0515033522
 C         -1.6315763354       -1.9350310688       -2.6488719817
 H         -1.1049381987       -2.2602572177       -3.5347168755
 H         -1.8153699786       -0.8724598101       -2.6203861119
 H         -2.8292967825       -3.8084945569       -2.5298542658
 H         -3.5276861174       -2.4216177257       -1.5982755196
 H         -0.6238641639       -3.4531205864       -1.4053032982
 O         -3.6972363823       -2.0669121967        1.4486671980
