  62
        -98.93358491
 C         -2.5998984217       -1.1886859580        0.2861458588
 C         -2.5842734726       -0.2787516936       -0.7988973962
 C         -3.4848990156        0.8842419710       -0.6857864012
 C         -4.2402325346        1.0377065438        0.4141453058
 C         -5.2500445968        2.1164898251        0.7154530276
 C         -4.8568170015        3.5638912752        0.3857798956
 C         -3.3593928326        3.8786872241        0.5172026949
 H         -3.2387554585        4.7764622523        1.1265691423
 H         -2.8486512057        3.0644855607        1.0347821877
 C         -2.6811823074        4.1327381701       -0.8315607231
 H         -3.3381340038        4.7587670653       -1.4392977116
 H         -1.7603470498        4.6954298714       -0.6602875354
 C         -2.3059793705        2.8825944711       -1.6268803033
 H         -1.4751009917        2.3654930804       -1.1386008699
 H         -1.9485342176        3.2034937545       -2.6080902384
 C         -3.4369371657        1.8603646524       -1.8257947110
 H         -4.3943365845        2.3542703961       -1.9730278024
 H         -3.2043279762        1.2735413239       -2.7183890803
 H         -5.1816974731        3.8083741655       -0.6246178049
 H         -5.4237733400        4.2061518144        1.0617824717
 H         -6.1780684108        1.8698030728        0.1917043732
 H         -5.4508405672        2.0259316085        1.7857077209
 O         -4.1964282316        0.1546700695        1.4529338937
 C         -3.3721980644       -0.9571007453        1.4251858357
 O         -3.4089867475       -1.6466765661        2.4649842630
 H         -0.1756703985       -0.5473665627        1.3796763936
 C          0.3409678895       -1.0382920916        0.5621430965
 C         -0.3117504619       -2.0480857780       -0.1358156840
 C          0.3619002993       -2.6727162925       -1.1761743582
 C          1.6472454551       -2.2830349498       -1.5113010640
 C          2.2857592035       -1.2678388370       -0.8242119871
 C          1.6229376666       -0.6377900304        0.2212624168
 N          2.2571305979        0.4096318678        0.9143478563
 S          3.7980792106        0.1322000145        1.5215723344
 O          3.9957918344       -1.2621787273        1.8445755847
 O          3.9483931238        1.0706659684        2.6127201767
 C          4.8795528085        0.6117270197        0.1914421603
 C          4.7296178687        1.8748012347       -0.3467936867
 C          5.5712627164        2.2674906963       -1.3751460665
 C          6.5452523006        1.3973017451       -1.8421665931
 C          6.6851904872        0.1339407394       -1.2885106769
 C          5.8454215800       -0.2659140297       -0.2605136195
 H          5.9121451590       -1.2406068144        0.1958736102
 H          7.4429435020       -0.5407974823       -1.6530224374
 H          7.1988264550        1.7059681639       -2.6427017255
 H          5.4645854467        3.2487602328       -1.8088141476
 H          3.9619711833        2.5207949424        0.0456999937
 H          1.6745871342        0.8418540040        1.6167681046
 H          3.2831309897       -0.9568280161       -1.0889731169
 H          2.1566188826       -2.7730781793       -2.3270162935
 H         -0.1257946943       -3.4504134989       -1.7401246837
 C         -1.7071510048       -2.4172700670        0.3075697447
 H         -1.6492697219       -2.7058105990        1.3711184373
 C         -2.2794881691       -3.6176486724       -0.4317560924
 C         -3.7594185318       -3.7884701939       -0.5981500162
 C         -2.8996508608       -3.5011144928       -1.7903588234
 H         -2.7296112752       -4.2972089932       -2.5004360424
 H         -2.9435057177       -2.5199457586       -2.2349517253
 H         -4.1755148482       -4.7785819845       -0.4866691073
 H         -4.3998737966       -3.0025886435       -0.2241366566
 H         -1.7151985940       -4.5226230245       -0.2278869198
 O         -1.8672259842       -0.4190470338       -1.8211779655
