  62
        -98.94052910
 C          2.5005283187       -1.0771509584        0.2524120532
 C          2.2267848971        0.3083015889        0.1514783553
 C          3.2752006120        1.1222318229       -0.4821465388
 C          4.3854466677        0.5235998413       -0.9501728687
 C          5.5502807229        1.2377881942       -1.5709132204
 C          6.6006856956        1.6106152412       -0.5152942888
 C          6.0196747646        2.3087979553        0.7141950182
 H          5.3781489230        1.6071615545        1.2520671525
 H          6.8547433411        2.5524659966        1.3744528235
 C          5.2245838540        3.5845397888        0.4032226857
 H          5.5193057378        4.3621362961        1.1110314449
 H          5.4757149632        3.9437583350       -0.5953778552
 C          3.7068635843        3.4300197446        0.5185732147
 H          3.2606261472        4.4277668859        0.4943428691
 H          3.4567493894        2.9827679945        1.4838153800
 C          3.0344014155        2.6022790256       -0.5842945512
 H          3.3404940932        2.9758575012       -1.5637141085
 H          1.9523742567        2.7359702417       -0.4909682721
 H          7.3466109143        2.2549790659       -0.9840136761
 H          7.0996468003        0.6963187011       -0.1860213428
 H          6.0071350857        0.5741562555       -2.3070081355
 H          5.1931974199        2.1329924931       -2.0763382916
 O          4.5952285457       -0.8150892270       -0.8682504772
 C          3.6651390190       -1.6452509137       -0.2668105734
 O          3.9831432636       -2.8515021409       -0.2571735057
 O          1.1689379884        0.8462124842        0.5728655836
 C          1.4916777251       -2.0209305100        0.8872017949
 C          0.2500073045       -2.0298242047        0.0286303390
 C          0.3244436870       -2.6071985590       -1.2367037354
 C         -0.7667935220       -2.5941825575       -2.0833093779
 C         -1.9553198842       -2.0030236644       -1.6893849325
 C         -2.0371088080       -1.4182967666       -0.4338207670
 C         -0.9401381173       -1.4410414192        0.4204763098
 H         -1.0142204245       -0.9727986767        1.3891096534
 N         -3.2433282538       -0.8263563212       -0.0107735498
 S         -4.0771127847        0.1386752158       -1.1189803756
 O         -4.7769148061       -0.7230763384       -2.0392992690
 O         -3.1871067943        1.1089191144       -1.7174259740
 C         -5.2466035886        0.9414461730       -0.0403897983
 C         -6.4620466099        0.3307268380        0.2025758695
 C         -7.3580012387        0.9421037689        1.0651421799
 C         -7.0249095084        2.1459910317        1.6677545456
 C         -5.8013873688        2.7475322312        1.4132672762
 C         -4.9002741075        2.1410239064        0.5523442661
 H         -3.9418921425        2.5779160797        0.3192888001
 H         -5.5458276647        3.6846745918        1.8812005769
 H         -7.7236247813        2.6208427199        2.3382770128
 H         -8.3112322182        0.4794022943        1.2635632022
 H         -6.6792746151       -0.5998927230       -0.2949061803
 H         -3.1217552788       -0.3255920073        0.8598456089
 H         -2.8099841424       -1.9742190307       -2.3455202425
 H         -0.6941305315       -3.0443357621       -3.0622921767
 H          1.2577917460       -3.0562083204       -1.5494282836
 H          1.9427851348       -3.0214570131        0.8392780992
 C          1.2447511505       -1.6659020668        2.3377491028
 C          0.6269233080       -2.6791835241        3.2525119824
 C          2.0746321535       -2.3210684783        3.3988835479
 H          2.3776762159       -1.7326131943        4.2519691538
 H          2.8160196748       -3.0388579515        3.0792147574
 H         -0.0639688275       -2.3398084804        4.0091466753
 H          0.3828861651       -3.6435357676        2.8333626001
 H          0.9900222422       -0.6229407106        2.4824347431
