  62
        -98.93916470
 C         -2.4696559058       -1.0431124015        0.3670425418
 C         -2.6193445144        0.1333762299        1.1474222200
 C         -3.8358155955        0.9184066801        0.9149027543
 C         -4.7446351054        0.4874702019        0.0216623162
 C         -6.0505926215        1.1573661844       -0.3094483125
 C         -5.9301739598        2.2828576642       -1.3458443885
 C         -5.2691154953        3.5652095980       -0.8390273657
 H         -5.4464329162        4.3361674242       -1.5914078246
 H         -5.7602208076        3.8874754170        0.0796033404
 C         -3.7568873646        3.4471919075       -0.6017145115
 H         -3.3733430648        2.5633026025       -1.1170224490
 H         -3.2508483158        4.3130985249       -1.0344563384
 C         -3.3491112347        3.3749814493        0.8700835932
 H         -3.6061429548        4.3122807859        1.3687469262
 H         -2.2635209172        3.2537350316        0.9199168185
 C         -3.9898989426        2.2172759922        1.6467834051
 H         -3.4750546944        2.1212124393        2.6059828197
 H         -5.0430884057        2.4263402091        1.8337347846
 H         -5.3776717740        1.9047931054       -2.2089914279
 H         -6.9412473495        2.5279628176       -1.6788948596
 H         -6.7021685901        0.3817477917       -0.7172789035
 H         -6.5026417534        1.5476919110        0.6027385401
 O         -4.5797053776       -0.6584336802       -0.6870125097
 C         -3.4392167948       -1.4395828150       -0.5548626643
 O         -3.4387053989       -2.4399358470       -1.2974180986
 H          1.0091406819       -0.3166922413        0.6710190448
 C          0.8862013334       -0.7896048680       -0.2931692586
 C         -0.2087356581       -1.6095257731       -0.5295022869
 C         -0.3547127784       -2.1853530127       -1.7876867423
 C          0.5839652945       -1.9514398319       -2.7757804639
 C          1.6906793596       -1.1592565371       -2.5272897884
 C          1.8383695033       -0.5673867306       -1.2781643723
 N          2.9367250491        0.2629914473       -1.0052313067
 S          3.5902635847        0.2482745125        0.5517658434
 O          3.6332406021       -1.1055062493        1.0566234712
 O          2.8886990856        1.2127481595        1.3610518912
 C          5.2419552229        0.8314587085        0.2161234086
 C          6.2591239393       -0.0878986792        0.0407671503
 C          7.5348814211        0.3705055590       -0.2480734795
 C          7.7700269518        1.7327670660       -0.3588492946
 C          6.7392276660        2.6435021252       -0.1793496254
 C          5.4614670152        2.1920340284        0.1107178086
 H          4.6315842976        2.8613392432        0.2681229354
 H          6.9264965421        3.7018552612       -0.2631542310
 H          8.7635966544        2.0873912536       -0.5831239459
 H          8.3387680938       -0.3348378688       -0.3843732334
 H          6.0308350724       -1.1363909057        0.1457334132
 H          3.6531174055        0.2161262331       -1.7168437531
 H          2.4300480598       -0.9916755654       -3.2957820352
 H          0.4586085243       -2.4029948212       -3.7483966625
 H         -1.2194510581       -2.7974447088       -1.9889023588
 C         -1.2026917993       -1.8540963411        0.5813401208
 H         -0.7624612158       -1.4536537886        1.5055670939
 C         -1.4632886468       -3.3341199162        0.7807577842
 C         -0.3881655501       -4.1767074389        1.3964859506
 C         -1.6335323680       -3.8662009934        2.1703327839
 H         -2.3503302826       -4.6567506147        2.3344151705
 H         -1.5642473647       -3.1624651218        2.9873441965
 H         -0.2479254082       -5.1819934310        1.0301029006
 H          0.5277944103       -3.6817037525        1.6853638137
 H         -2.0703228916       -3.7776337986        0.0026325027
 O         -1.7784987814        0.5043877382        2.0109176862
