  62
        -98.95138597
 C         -1.8189877247       -1.2597514120       -0.2869674791
 C         -2.9113510153       -0.5811253206        0.3002302924
 C         -3.2329580934        0.7283372046       -0.2755167498
 C         -2.5114818968        1.1988430192       -1.3094115864
 C         -2.7038802094        2.5260058791       -1.9905657635
 C         -1.9936171366        3.6813815844       -1.2713863802
 C         -2.6665811831        4.1502341971        0.0193660247
 H         -2.2132120238        5.1068029630        0.2871758095
 H         -3.7268806070        4.3298193278       -0.1647830898
 C         -2.5001083222        3.1834680016        1.2001842828
 H         -1.6692699303        2.5029382849        0.9953735398
 H         -2.2265654496        3.7480113074        2.0954081148
 C         -3.7519606431        2.3741207984        1.5420448730
 H         -3.5033698035        1.6923922431        2.3597779954
 H         -4.5373301059        3.0481677311        1.8928541028
 C         -4.3089296270        1.5391973135        0.3816543672
 H         -5.0492791137        0.8440872836        0.7861444108
 H         -4.7970625848        2.1864516327       -0.3466005920
 H         -0.9680224069        3.3748821532       -1.0483581028
 H         -1.9510474874        4.5251849686       -1.9644504386
 H         -2.2784123425        2.4283452320       -2.9916290551
 H         -3.7676048078        2.7475856559       -2.0827526164
 O         -1.5006618809        0.4936371859       -1.8785147866
 C         -1.0961162843       -0.7198850417       -1.3499734870
 O         -0.1059022162       -1.2236311318       -1.9169419231
 O         -3.5773277113       -1.0440337670        1.2670354227
 C         -1.3405960064       -2.5652169445        0.3210329148
 C          0.0983653021       -2.4200726607        0.7542644917
 C          1.0476168649       -3.4244392158        0.6103608291
 C          2.3607753275       -3.2112114552        0.9945561763
 C          2.7618465158       -1.9884273972        1.5011920257
 C          1.8168110125       -0.9818617608        1.6588779376
 C          0.4952676534       -1.2152440404        1.3204323839
 H         -0.2239767248       -0.4208109734        1.4570739999
 N          2.1656468943        0.3037670332        2.1289443496
 S          2.0296145221        1.5402019932        0.9992340931
 O          2.5070893812        2.7261798338        1.6784635987
 O          0.6863429077        1.5967507840        0.4873196109
 C          3.1950450147        1.0780651336       -0.2696649730
 C          4.4773966828        1.5889220097       -0.1949728475
 C          5.4220660872        1.1728212294       -1.1182414675
 C          5.0727520172        0.2462893901       -2.0896746910
 C          3.7833339141       -0.2586146555       -2.1479899808
 C          2.8296372311        0.1561346123       -1.2297515725
 H          1.8192174987       -0.2224533828       -1.2643413853
 H          3.5030214548       -0.9785164426       -2.9001623792
 H          5.8081387568       -0.0836373847       -2.8064847019
 H          6.4245243417        1.5672840712       -1.0756221953
 H          4.7002797913        2.3086255024        0.5763597875
 H          3.0870434104        0.3460552661        2.5441449400
 H          3.7926147089       -1.8102481668        1.7686681607
 H          3.0863094559       -4.0012133602        0.8754790632
 H          0.7601949026       -4.3736949350        0.1883747299
 H         -1.9624052870       -2.7194742998        1.2160450221
 C         -1.5649129647       -3.7192222369       -0.6341919758
 C         -1.8602889968       -5.0925567415       -0.1110617159
 C         -2.9440287040       -4.2904463547       -0.7643611066
 H         -3.2898434665       -4.5856465122       -1.7435454136
 H         -3.7154411192       -3.8638582041       -0.1398482506
 H         -1.4642576401       -5.9436365600       -0.6443062625
 H         -1.9041572726       -5.2218113967        0.9598158426
 H         -0.9729461494       -3.6289249576       -1.5380967538
