  62
        -98.94043871
 C         -2.4993761596       -1.2653549807        0.1049334797
 C         -3.4073548900       -0.6861325407        1.0308728193
 C         -4.4137259501        0.2249158189        0.4772264088
 C         -4.4476239698        0.4506882686       -0.8481743712
 C         -5.4288754998        1.3305857982       -1.5738869917
 C         -5.0514051102        2.8183416583       -1.5756401619
 C         -5.2264436407        3.5357379886       -0.2364885221
 H         -5.1399734809        4.6061569785       -0.4333931924
 H         -6.2328791708        3.3548329184        0.1420609776
 C         -4.1944979809        3.1456239891        0.8310601682
 H         -3.3440040307        2.6529706192        0.3537532885
 H         -3.8110911912        4.0474927593        1.3134646781
 C         -4.7358807209        2.2371415592        1.9350284183
 H         -5.4976875612        2.7704692492        2.5077914180
 H         -3.9130841211        1.9937655696        2.6119816785
 C         -5.3385941505        0.9196928489        1.4302452884
 H         -5.4876972205        0.2595955191        2.2881219386
 H         -6.3031979104        1.1033905086        0.9574960382
 H         -4.0154040902        2.9155020185       -1.9087267117
 H         -5.6853474001        3.3137669580       -2.3146569622
 H         -5.4546309695        0.9803888480       -2.6081024616
 H         -6.4215716999        1.2065285481       -1.1401872619
 O         -3.5728388594       -0.1339333114       -1.7072114109
 C         -2.5675308993       -0.9848113310       -1.2600544704
 O         -1.8322989890       -1.4019669810       -2.1760073901
 O         -3.3817720002       -0.9321622904        2.2657576794
 C         -1.4616428895       -2.2131200803        0.6796837802
 C         -0.1537872998       -1.5163697999        0.9552298803
 C          0.4900375700       -1.6616730194        2.1782910805
 C          1.7076749298       -1.0459097591        2.4110337707
 C          2.3064523598       -0.2743758292        1.4313764706
 C          1.6699245401       -0.1203413396        0.2066979704
 C          0.4491966403       -0.7372408300       -0.0227647297
 H         -0.0332451695       -0.6264518403       -0.9833236199
 N          2.2753254201        0.6632149303       -0.7976105796
 S          3.7835527304        0.1341469306       -1.3291008791
 O          3.9308416806        0.6676200703       -2.6653040192
 O          3.9143571707       -1.2980917494       -1.1880779487
 C          4.9279409399        0.9597328511       -0.2434983890
 C          5.7897451499        0.2184401115        0.5410225014
 C          6.6730690595        0.8831729419        1.3775598715
 C          6.6790261292        2.2692501319        1.4135862311
 C          5.8089304192        2.9989808315        0.6169231307
 C          4.9241666896        2.3408423511       -0.2223431793
 H          4.2352117096        2.8683801508       -0.8607806196
 H          5.8170745289        4.0766218615        0.6473548205
 H          7.3662448889        2.7842766223        2.0661256412
 H          7.3506167995        0.3178488122        1.9970660618
 H          5.7442084002       -0.8572631385        0.4827011716
 H          1.6717421603        0.8040001900       -1.5963060398
 H          3.2541942496        0.2079654711        1.6062251208
 H          2.1960741095       -1.1674832287        3.3656117508
 H          0.0250555899       -2.2560281194        2.9511497005
 H         -1.8801101097       -2.5224521001        1.6506378201
 C         -1.2821722290       -3.4745179104       -0.1561004795
 C         -0.0496716387       -3.7862024603       -0.9462042891
 C         -0.3500627688       -4.5567596201        0.3024581010
 H         -0.6661767386       -5.5850946802        0.2153465512
 H          0.2605812309       -4.3517355397        1.1687970911
 H         -0.1801476484       -4.2690277406       -1.9030274290
 H          0.7705146511       -3.0844128801       -0.9308797691
 H         -2.2201764688       -3.7984736108       -0.5966251696
