  62
        -98.93990108
 C         -2.6364587011       -0.2004896606        0.5528174853
 C         -2.1711953434        0.2466491514       -0.7100690673
 C         -1.9847766515        1.6993890718       -0.8494661586
 C         -2.2345790146        2.5045040419        0.1975921707
 C         -2.0884644051        3.9983027239        0.1912422954
 C         -0.6973395888        4.4408704272        0.6620310325
 C          0.4588459521        3.7205360463       -0.0325551714
 H          1.3845182396        4.1697439923        0.3354120571
 H          0.4750261413        2.6712699471        0.2709434007
 C          0.4345854563        3.7975273698       -1.5651000643
 H          1.4474587401        4.0036895938       -1.9177875901
 H         -0.1982768634        4.6261715889       -1.8874188353
 C         -0.0197551570        2.5108732872       -2.2584500967
 H          0.5269735149        1.6573942210       -1.8455355425
 H          0.2450546774        2.5829930414       -3.3174223259
 C         -1.5222038495        2.2079491587       -2.1850868243
 H         -2.0912008355        3.0928867631       -2.4807114510
 H         -1.7330940490        1.4068980675       -2.8999665810
 H         -0.6078715396        5.5165088429        0.4961559390
 H         -0.6187587135        4.2539313743        1.7354938605
 H         -2.2755958353        4.3670226214       -0.8156256174
 H         -2.8381048462        4.4154969523        0.8664793628
 O         -2.6397220814        2.0365549515        1.4067017080
 C         -2.8158481481        0.6797999613        1.6213024318
 O         -3.1324340491        0.3851516530        2.7927829846
 O         -1.9412523459       -0.5152933648       -1.6843231663
 C         -2.8236513020       -1.6807844175        0.8535694105
 C         -1.6113814265       -2.4210620163        0.3460497840
 C         -1.6439866627       -3.4488785864       -0.5862149930
 C         -0.4672701647       -4.0000197036       -1.0650135906
 C          0.7627797389       -3.5338755496       -0.6357819313
 C          0.8013796638       -2.5269824623        0.3157411133
 C         -0.3740828960       -1.9941815884        0.8122340757
 H         -0.3311362044       -1.1855873575        1.5336954698
 N          2.0637583750       -1.9832298159        0.7155703215
 S          2.2916237186       -0.4900979265       -0.0566994722
 O          1.5338043544        0.5428725332        0.6195324889
 O          2.0431307772       -0.6702124402       -1.4632601150
 C          4.0358520783       -0.2311249786        0.2099257658
 C          4.4736490357        0.7991807469        1.0178360057
 C          5.8359726385        0.9579074621        1.2223178978
 C          6.7302129491        0.0854597815        0.6217295217
 C          6.2744593380       -0.9459346178       -0.1865710301
 C          4.9148185237       -1.1080209162       -0.3963318085
 H          4.5125452820       -1.8888096725       -1.0199400187
 H          6.9732355795       -1.6219967876       -0.6522576674
 H          7.7891772273        0.2106623921        0.7836474589
 H          6.1921419064        1.7597423640        1.8489366594
 H          3.7411332944        1.4537924411        1.4626931840
 H          2.0763438321       -1.7934298641        1.7107818904
 H          1.6846705089       -3.9242487438       -1.0343885553
 H         -0.5104762626       -4.7861607907       -1.8034863550
 H         -2.5912044347       -3.7906085004       -0.9708661320
 H         -2.8251280285       -1.7465479034        1.9547367136
 C         -4.1450122649       -2.2673952062        0.3834190809
 C         -5.3673348090       -1.4075588023        0.2664596687
 C         -4.7256834690       -1.9693948080       -0.9647559123
 H         -5.2357286540       -2.7653180994       -1.4875686899
 H         -4.1735085849       -1.3056619597       -1.6104304863
 H         -6.3138793469       -1.8151081610        0.5882321134
 H         -5.2544531545       -0.3516946200        0.4669300207
 H         -4.3000613263       -3.2700393779        0.7701150546
