  62
        -98.94118817
 C         -0.8830693017       -1.9691209865        0.3330307833
 C          0.1952694897       -1.2968059242        0.9530870654
 C          1.5582990832       -1.7352818580        0.5857397599
 C          1.7101077577       -2.6774151680       -0.3612008977
 C          2.9866049756       -3.2145955581       -0.9521958073
 C          3.6368319435       -2.2335645448       -1.9401627684
 C          3.6988149458       -0.7839147113       -1.4646376161
 H          4.1012075237       -0.1850667263       -2.2873167251
 H          2.6850945247       -0.4197964273       -1.2801102970
 C          4.5751057561       -0.5426509157       -0.2372472298
 H          5.5904573318       -0.8837040731       -0.4531368708
 H          4.6162637795        0.5378074954       -0.0774421160
 C          4.1057422665       -1.1987413455        1.0633411122
 H          4.6576364361       -0.7283990635        1.8821596807
 H          4.3627468046       -2.2544703738        1.0850014778
 C          2.6242872829       -1.0104594019        1.3710527911
 H          2.4491446267       -1.2790850306        2.4200108052
 H          2.3746201940        0.0535562945        1.2992279589
 H          4.6445845278       -2.5886376337       -2.1650537562
 H          3.0567791347       -2.2515522176       -2.8664328208
 H          3.6818395827       -3.4866806719       -0.1635541408
 H          2.7221936712       -4.1264222851       -1.4926817959
 O          0.6418419506       -3.2694851997       -0.9693331064
 C         -0.6565114979       -2.9445865193       -0.6409059234
 O         -1.5216165330       -3.5903999452       -1.2699029683
 H         -1.1185384234        0.7226824819        0.2096958479
 C         -2.0097455805        0.6374120078       -0.3884844755
 C         -2.7858157571       -0.5083985748       -0.3039299082
 C         -3.9412610126       -0.5890116412       -1.0717134047
 C         -4.2955550181        0.4480571161       -1.9169594975
 C         -3.4897450241        1.5664000040       -2.0377814341
 C         -2.3326900232        1.6538642651       -1.2728093093
 N         -1.4660578133        2.7540025399       -1.3695434588
 S          0.1900313235        2.4873593887       -1.3170698004
 O          0.7589766893        3.5692314969       -2.0979302181
 O          0.5348117666        1.1558993723       -1.7608458816
 C          0.6718527128        2.7317427710        0.3791905766
 C         -0.2372143302        3.1042232787        1.3463875942
 C          0.2126929060        3.3013162043        2.6427553972
 C          1.5533095048        3.1313708521        2.9471382603
 C          2.4561263838        2.7653720256        1.9614922107
 C          2.0120626087        2.5627078795        0.6649793569
 H          2.6756095283        2.2706471015       -0.1346876652
 H          3.4992930107        2.6282467879        2.1990517199
 H          1.8970488648        3.2796996903        3.9586922832
 H         -0.4887591835        3.5808633062        3.4124943403
 H         -1.2761348206        3.2229768932        1.0860828408
 H         -1.7058398078        3.4299729570       -2.0801262848
 H         -3.7471432804        2.3599495937       -2.7228401136
 H         -5.1959630430        0.3747173197       -2.5079145160
 H         -4.5509376606       -1.4790268411       -1.0207613468
 C         -2.3476160104       -1.6452782718        0.5886018999
 H         -2.9099449023       -2.5405540862        0.2883476027
 C         -2.6668180626       -1.3401639479        2.0390738167
 C         -4.0678428724       -1.5321270388        2.5330594062
 C         -2.9822267752       -2.4663557739        2.9748051918
 H         -2.6253853718       -2.4047380713        3.9916741923
 H         -2.9753256433       -3.4684439130        2.5704592157
 H         -4.4613496267       -0.8267559421        3.2484844024
 H         -4.8009503062       -1.9044207765        1.8336705501
 H         -2.0987774382       -0.5084604992        2.4334494929
 O          0.0647241242       -0.3577333192        1.7844314845
