  62
        -98.94414938
 C         -2.5036894482       -1.1637487255       -0.0678877668
 C         -3.2235882956       -0.4115059793        0.8900673835
 C         -4.0413439606        0.6849675015        0.3597493115
 C         -4.0751166230        0.9109440469       -0.9665825480
 C         -4.8807203845        1.9745586557       -1.6624313210
 C         -4.1991434329        3.3492622297       -1.7007536293
 C         -4.1584659985        4.0920995383       -0.3647067102
 H         -3.8516617318        5.1181521498       -0.5768214462
 H         -5.1626731235        4.1333400205        0.0581057797
 C         -3.1901361659        3.4911067189        0.6639199332
 H         -2.4893302913        2.8232302441        0.1566244727
 H         -2.5980318840        4.2889651949        1.1184364400
 C         -3.8683581085        2.7261560994        1.8008559767
 H         -3.0905213323        2.3166649487        2.4513040491
 H         -4.4734678108        3.4142836087        2.3951440580
 C         -4.7592170361        1.5655936083        1.3377173644
 H         -5.6802718710        1.9501060733        0.9004957319
 H         -5.0115188733        0.9580901427        2.2103673825
 H         -3.1820736320        3.2244622275       -2.0796877008
 H         -4.7475502901        3.9649896242       -2.4171819774
 H         -5.8576748583        2.0643828338       -1.1868532418
 H         -5.0232277062        1.6329100937       -2.6897710125
 O         -3.3701885101        0.1623842753       -1.8555935468
 C         -2.5499336415       -0.8742785388       -1.4319217308
 O         -1.9330211108       -1.4471635137       -2.3486234904
 O         -3.1814475691       -0.6427474811        2.1295123977
 C         -1.6213895749       -2.3040580328        0.4042127500
 C         -0.1780233368       -2.0372002312        0.0515325202
 C          0.6671807691       -2.9999304634       -0.4838415784
 C          1.9873439980       -2.6945512796       -0.7679916480
 C          2.4938320654       -1.4319182283       -0.5234337188
 C          1.6617650057       -0.4643955415        0.0251250843
 C          0.3418904230       -0.7746967148        0.3119956023
 H         -0.3038093868       -0.0191290693        0.7444824219
 N          2.1687505317        0.8251204049        0.2741961017
 S          3.5437876501        0.9420366025        1.2350121669
 O          3.6220557555       -0.1509124585        2.1767120511
 O          3.4992883512        2.2737552545        1.7985857193
 C          4.8914615168        0.8470682316        0.0760673896
 C          4.9365714717        1.7719047024       -0.9487439790
 C          5.9847544313        1.7167770297       -1.8534147658
 C          6.9658963266        0.7459006251       -1.7167147043
 C          6.9081993601       -0.1728727547       -0.6799808644
 C          5.8615270019       -0.1243103314        0.2276614684
 H          5.7712476769       -0.8209274419        1.0457755362
 H          7.6720126369       -0.9265447938       -0.5753664533
 H          7.7804415652        0.7056058693       -2.4225685444
 H          6.0329295535        2.4294425604       -2.6610503844
 H          4.1567023277        2.5119880513       -1.0170142815
 H          1.4672378722        1.4765921678        0.5959663971
 H          3.5187193577       -1.1887007776       -0.7511894084
 H          2.6301134163       -3.4514617971       -1.1907137972
 H          0.2915322106       -3.9899891689       -0.6826682091
 H         -1.7047867663       -2.3014840814        1.5021305212
 C         -2.1405863481       -3.6271117453       -0.1181984052
 C         -1.9319035676       -4.8856174205        0.6684076541
 C         -3.2970129081       -4.2743097230        0.5811277026
 H         -4.0493174846       -4.7687403239       -0.0148131464
 H         -3.6916971526       -3.7731767612        1.4531575185
 H         -1.7490798868       -5.8046859010        0.1323756460
 H         -1.4014175839       -4.8075990427        1.6054977902
 H         -2.1137248249       -3.6856609644       -1.2003976973
