  62
        -98.94848923
 C          2.3476179000        0.6525261128        0.1722723684
 C          1.5449480699        0.0349659416       -0.8163558208
 C          1.7103733610       -1.4176221384       -0.9695740599
 C          2.5715390619       -2.0725887373       -0.1715946699
 C          2.8394182630       -3.5487080271       -0.2191184391
 C          1.9346874540       -4.3250167371        0.7462383718
 C          0.4508043837       -3.9768877683        0.6256125724
 H         -0.0921311254       -4.6305306683        1.3128529431
 H          0.2850857131       -2.9532242982        0.9707222418
 C         -0.1277127569       -4.1297037597       -0.7880123072
 H         -1.0981664065       -4.6250572804       -0.7129101264
 H          0.5194734633       -4.7697459596       -1.3897341971
 C         -0.3611338083       -2.8029184003       -1.5130380379
 H         -0.8871028384       -2.1211465603       -0.8400690181
 H         -1.0126173686       -2.9902752614       -2.3711157675
 C          0.8968403609       -2.0965339397       -2.0354103591
 H          1.5109377311       -2.8046400396       -2.5965641489
 H          0.5749613900       -1.3041822504       -2.7174956294
 H          2.2526983744       -4.1110276863        1.7694442615
 H          2.0749145748       -5.3925745272        0.5633871124
 H          3.8807784532       -3.7146239261        0.0639957104
 H          2.6894191727       -3.9041073578       -1.2369862088
 O          3.2952109519       -1.4547238261        0.7976903293
 C          3.1801229210       -0.0910933360        1.0108975685
 O          3.8662359312        0.3382620051        1.9614730878
 O          0.7383828291        0.6595437005       -1.5539717907
 C          2.2606890090        2.1452525729        0.4467464075
 C          0.8129878087        2.5725584118        0.4512654380
 C          0.3067595675        3.6298703310       -0.2934373524
 C         -1.0421799727        3.9388138100       -0.2456480619
 C         -1.9159155217        3.1862121898        0.5170525190
 C         -1.4179600506        2.1250619307        1.2645861695
 C         -0.0613091703        1.8511434217        1.2556037789
 H          0.3122355406        1.0252244623        1.8444503593
 N         -2.2667309095        1.2947494605        2.0285563904
 S         -2.3853940886       -0.3040534899        1.5331024015
 O         -3.2984658676       -0.9236359800        2.4703442924
 O         -1.0724724882       -0.8869474690        1.4439620612
 C         -3.1672764395       -0.2160846415       -0.0690813381
 C         -2.4392225204        0.2104832983       -1.1620692788
 C         -3.0859630711        0.3307337171       -2.3833567885
 C         -4.4343781209        0.0294273460       -2.4914225976
 C         -5.1503764000       -0.3957033539       -1.3822330370
 C         -4.5136886693       -0.5153396726       -0.1580297272
 H         -5.0266699286       -0.8433544324        0.7317061033
 H         -6.1989208499       -0.6318655347       -1.4667994463
 H         -4.9289387815        0.1259693550       -3.4451649774
 H         -2.5220233318        0.6623665169       -3.2403957790
 H         -1.3875362105        0.4343919192       -1.0661853395
 H         -3.1989639797        1.6685900099        2.1465985507
 H         -2.9727465719        3.4074611890        0.5298887095
 H         -1.4211491136        4.7633893493       -0.8299374422
 H          0.9623656867        4.2001620910       -0.9306033331
 H          2.6491284995        2.2679108339        1.4720395172
 C          3.1409518179        2.9961399030       -0.4575888035
 C          4.3629647880        2.4234248135       -1.1099655838
 C          3.1767945773        2.8011487621       -1.9426035034
 H          3.2535821363        3.6746051217       -2.5734151740
 H          2.5656625676        2.0142039813       -2.3544576226
 H          5.2492375075        3.0380119541       -1.1626306746
 H          4.5695410689        1.3741786638       -0.9543429532
 H          3.2292609573        4.0156443233       -0.0949699942
