  62
        -98.94090994
 C         -2.5626852192       -0.7993010970       -0.4759120788
 C         -3.2473127579       -0.0327602116        0.5045314103
 C         -3.4380165416        1.3921072396        0.2122112054
 C         -2.9854122695        1.8867137909       -0.9537396708
 C         -3.0643752674        3.3271939516       -1.3664526656
 C         -1.7983278240        4.0911821630       -0.9549176097
 C         -1.3920457191        3.8789015691        0.5037820876
 H         -1.0736150210        2.8416049192        0.6396659667
 H         -0.5124615631        4.5000102202        0.6883560203
 C         -2.4846579825        4.2214947809        1.5265286930
 H         -2.0314503549        4.7914088062        2.3403280933
 H         -3.2379048927        4.8595533905        1.0627584394
 C         -3.1679457809        3.0085936726        2.1613489374
 H         -2.4078448517        2.3161123510        2.5336521228
 H         -3.7446233258        3.3560825321        3.0227301235
 C         -4.1268849877        2.2295128882        1.2520273779
 H         -4.8353695449        2.9180722368        0.7874793710
 H         -4.6857455531        1.5292530810        1.8795420930
 H         -0.9705234734        3.7587965398       -1.5857925046
 H         -1.9620522534        5.1549181175       -1.1377133892
 H         -3.1658256944        3.3690456102       -2.4522714628
 H         -3.9411821626        3.7825691287       -0.9103222354
 O         -2.3568161902        1.1225360478       -1.8794104974
 C         -2.0897378033       -0.2200903626       -1.6532258704
 O         -1.4411573488       -0.7523916601       -2.5781780056
 O         -3.6828428791       -0.5269106796        1.5791866858
 C         -2.3128056078       -2.2586578639       -0.1287919952
 C         -0.9636624676       -2.3942326670        0.5374633309
 C         -0.8342105634       -2.9354324522        1.8105937375
 C          0.4008292680       -2.9871105115        2.4344900960
 C          1.5283330110       -2.4870971835        1.8077444889
 C          1.4070275195       -1.9489495332        0.5346866599
 C          0.1752704106       -1.9202307964       -0.0980632070
 H          0.0934239659       -1.4906833023       -1.0862949841
 N          2.5504089447       -1.3758695225       -0.0876832386
 S          2.8280626433        0.1980116922        0.4823706486
 O          2.8374114083        0.1601850751        1.9225029108
 O          1.8945236769        1.1211821344       -0.1298256856
 C          4.4754264183        0.5011237745       -0.1259507292
 C          5.5429033554       -0.0300665517        0.5717804510
 C          6.8255755164        0.1719318090        0.0885469732
 C          7.0180093164        0.8960347420       -1.0787811171
 C          5.9363582378        1.4227983969       -1.7679886888
 C          4.6504805938        1.2230145377       -1.2902354539
 H          3.7805320021        1.6204576691       -1.7887496346
 H          6.0879769280        1.9872775185       -2.6740056629
 H          8.0172321892        1.0530577740       -1.4532004198
 H          7.6694060320       -0.2343981426        0.6223598402
 H          5.3444511130       -0.5776772616        1.4779160039
 H          2.4041807228       -1.2969885744       -1.0875531769
 H          2.4890377344       -2.4853277984        2.2951169389
 H          0.4826653965       -3.4062857849        3.4257784954
 H         -1.7153305555       -3.2927565081        2.3232496342
 H         -3.0788501443       -2.5149866349        0.6157093873
 C         -2.4416291773       -3.2129359287       -1.2984652469
 C         -2.7360743417       -4.6567987231       -1.0271914638
 C         -3.7860206343       -3.7795339306       -1.6385762511
 H         -4.0363352992       -3.9168505339       -2.6796135563
 H         -4.6232046884       -3.4813030218       -1.0244193722
 H         -2.2635574695       -5.4023830415       -1.6477156133
 H         -2.8637876630       -4.9567345332        0.0017610071
 H         -1.7791842579       -2.9782239902       -2.1210769781
