  62
        -98.94693209
 C         -1.2815823696       -0.7300684691        0.6218143010
 C         -2.1569562196       -0.7159673002       -0.4902939691
 C         -2.9009093498        0.5323728594       -0.6999110402
 C         -2.6664822201        1.5940617601        0.0915629289
 C         -3.3245286404        2.9429547399       -0.0171807923
 C         -4.6897793604        3.0306202902        0.6792678576
 C         -5.8294801802        2.2949921894       -0.0268631318
 H         -6.7595138503        2.6189533496        0.4443567279
 H         -5.8678123103        2.6058854284       -1.0713305721
 C         -5.7420964199        0.7645867294        0.0540267795
 H         -5.0497775799        0.4810115603        0.8499153598
 H         -6.7203642098        0.3575826595        0.3192184898
 C         -5.3055419897        0.0855029084       -1.2441241899
 H         -6.0577378797        0.2545554976       -2.0177946801
 H         -5.2428017295       -0.9905564514       -1.0639093290
 C         -3.9448361998        0.5555872183       -1.7753983302
 H         -3.6243661996       -0.1327666023       -2.5615289496
 H         -4.0302670300        1.5551653579       -2.2017034611
 H         -4.9538414907        4.0886927402        0.7442123067
 H         -4.5864738704        2.6504239411        1.6981629279
 H         -3.4303179604        3.2138097290       -1.0682552425
 H         -2.6469056106        3.6573526005        0.4557613371
 O         -1.7593144401        1.5648616312        1.1032205290
 C         -1.0536592599        0.4087809516        1.3936847200
 O         -0.2608575699        0.5221431226        2.3519081999
 O         -2.3174164793       -1.6916034110       -1.2696791982
 C         -0.4680580094       -1.9745991587        0.9412055621
 C          0.4907667307       -2.2128445794       -0.2007544577
 C          0.5351441410       -3.3729804501       -0.9599482867
 C          1.4025080511       -3.4632154208       -2.0362117666
 C          2.2296480109       -2.4093334109       -2.3762002874
 C          2.2053948406       -1.2480898003       -1.6080366384
 C          1.3550385805       -1.1720174395       -0.5190769585
 H          1.3210575803       -0.2695600490        0.0700061607
 N          3.0497745304       -0.1760977203       -1.9105019193
 S          2.8649090800        1.3687300201       -1.3111901207
 O          1.4790297499        1.7619780199       -1.2042148711
 O          3.6856418699        2.1756285896       -2.1906169013
 C          3.6527795200        1.2836643717        0.2836580594
 C          5.0162395100        1.0554917920        0.2958625897
 C          5.6733027100        0.9649270632        1.5110499398
 C          4.9590950299        1.1021875740        2.6924563596
 C          3.5936136999        1.3354861437        2.6640897394
 C          2.9303243199        1.4299427925        1.4495831893
 H          1.8650245299        1.6017917523        1.4093221291
 H          3.0284274398        1.4392050644        3.5766698093
 H          5.4678615399        1.0285552150        3.6407042097
 H          6.7361804200        0.7863459034        1.5353707400
 H          5.5335184901        0.9653230613       -0.6447666302
 H          3.5289652804       -0.2168207410       -2.7959557093
 H          2.8866393509       -2.4768552915       -3.2296091974
 H          1.4232288813       -4.3651486313       -2.6290938458
 H         -0.1192173488       -4.1960061700       -0.7253285560
 H          0.1225482206       -1.7303350578        1.8359526819
 C         -1.3674950091       -3.1508544586        1.2512668931
 C         -0.8506695689       -4.2863784778        2.0810055040
 C         -1.8602716291       -3.3385793275        2.6535163932
 H         -2.8714706291       -3.6867580876        2.8018812235
 H         -1.5317176393       -2.6253852668        3.3957330826
 H         -1.1697793387       -5.2888298580        1.8395314149
 H          0.1656341011       -4.2203321072        2.4386422640
 H         -2.0568809690       -3.3753715494        0.4461962232
