  62
        -98.94495491
 C         -1.8416000209       -1.2533250515       -0.0340522460
 C         -3.0750451980       -0.9409366834        0.5860591108
 C         -3.8735699405        0.1059800733       -0.0616647168
 C         -3.4156215813        0.6997928082       -1.1788713760
 C         -4.1256894504        1.7654600290       -1.9693883942
 C         -3.9328536205        3.1871964750       -1.4238742618
 C         -4.6820957901        3.4953773689       -0.1267785502
 H         -4.6360933882        4.5762384994        0.0207807483
 H         -5.7326894959        3.2273395843       -0.2425182476
 C         -4.1067292571        2.8034717408        1.1170066498
 H         -3.0920484467        2.4577204425        0.9043065555
 H         -4.0320697576        3.5248668652        1.9340047096
 C         -4.9353453134        1.6242592048        1.6269563762
 H         -5.9085302730        1.9824297042        1.9697050981
 H         -4.4174764006        1.1861692389        2.4842266901
 C         -5.1595398798        0.5155560743        0.5905117538
 H         -5.5629799384       -0.3588710510        1.1071263071
 H         -5.8799777563        0.8419467805       -0.1592719621
 H         -2.8646203784        3.3659715637       -1.2784890957
 H         -4.2822794673        3.8805953234       -2.1923134835
 H         -3.7152860618        1.7273395343       -2.9807754411
 H         -5.1905496824        1.5358161482       -2.0181630074
 O         -2.2243482874        0.3718236723       -1.7457452160
 C         -1.4055984009       -0.6065215973       -1.1912056608
 O         -0.3418405570       -0.7895047780       -1.8091700421
 O         -3.4901746410       -1.5121461880        1.6306784600
 C         -0.9804192711       -2.3438099047        0.5707592944
 C          0.4109968026       -1.8685972508        0.9147037221
 C          1.4855589599       -2.7493489167        0.9857503400
 C          2.7501021031       -2.2970204380        1.3189148299
 C          2.9807224321       -0.9559185538        1.5646799020
 C          1.9184576057       -0.0655979219        1.4795465409
 C          0.6444698789       -0.5278234409        1.1838620587
 H         -0.1772511990        0.1761809101        1.1375758593
 N          2.1512083710        1.3072666996        1.6654518791
 S          3.4999415389        1.9669664728        0.9197102663
 O          4.6334682967        1.8522884438        1.8052052168
 O          3.1163152250        3.3191662607        0.5744837740
 C          3.8018978873        0.9990623001       -0.5506130749
 C          5.0780127227        0.5286226159       -0.7897149961
 C          5.3113500875       -0.2341420706       -1.9223528352
 C          4.2669177925       -0.5231060358       -2.7873454646
 C          2.9918761583       -0.0415249932       -2.5350985714
 C          2.7562823347        0.7334463347       -1.4114516406
 H          1.7645246969        1.1024428911       -1.2038043142
 H          2.1642887692       -0.2766875103       -3.1849557911
 H          4.4444335500       -1.1295225414       -3.6614798822
 H          6.3026984224       -0.6081872837       -2.1214700371
 H          5.8557483431        0.7613631063       -0.0804205170
 H          1.3379067831        1.8837393345        1.5074241986
 H          3.9604420598       -0.5828898679        1.8166239940
 H          3.5699127708       -2.9958890951        1.3784390266
 H          1.3291864775       -3.7952331270        0.7787510779
 H         -1.4854312534       -2.6258077597        1.5077023091
 C         -0.9617885480       -3.5511585694       -0.3493935309
 C         -0.9861734732       -4.9426461275        0.2069327442
 C         -2.2011540233       -4.3851424465       -0.4693003633
 H         -2.4767167877       -4.7654777090       -1.4414536396
 H         -3.0453202852       -4.1052565616        0.1442684396
 H         -0.4257099220       -5.7114021703       -0.3034946451
 H         -1.0169061703       -5.0548355080        1.2803604213
 H         -0.3917891450       -3.3708876442       -1.2539700418
