  62
        -98.93633361
 C         -1.7543751908       -1.1849109504        0.3228619852
 C         -2.1436532608       -0.1178866193       -0.5208871021
 C         -3.5874614338        0.0030677254       -0.7743580639
 C         -4.4375815610       -0.8884389058       -0.2340300335
 C         -5.9296170647       -0.9435148241       -0.4309104491
 C         -6.7345739443        0.2413210127        0.1372356088
 C         -7.0172483754        1.3575193057       -0.8758287590
 H         -6.9817191565        0.9366243629       -1.8813761533
 H         -8.0359779930        1.7198134952       -0.7235876478
 C         -6.0944782349        2.5778073246       -0.8002050368
 H         -6.2376017542        3.1622661406       -1.7116919347
 H         -6.3986107626        3.2035470749        0.0420191567
 C         -4.6040609863        2.2800014824       -0.6330175045
 H         -4.4023333974        1.9780242313        0.3976016607
 H         -4.0496725301        3.2068243059       -0.7945745236
 C         -4.0559283403        1.1862042021       -1.5702129508
 H         -4.8099084871        0.8880594040       -2.2973571462
 H         -3.1846373436        1.5621488822       -2.1107912361
 H         -7.6908277415       -0.1600925119        0.4763263521
 H         -6.2238156715        0.6416526220        1.0125848789
 H         -6.1387590660       -1.0446613834       -1.4981833948
 H         -6.2535435483       -1.8627094129        0.0613360834
 O         -4.0166526190       -1.9121966606        0.5585813617
 C         -2.6772940071       -2.0759544291        0.8698096170
 O         -2.4384428239       -3.0352688989        1.6309357950
 H          2.0782583714       -0.1043753571        0.0487314573
 C          1.5190723626        0.3830879694        0.8293565910
 C          0.2993674522       -0.1302807730        1.2423901418
 C         -0.3929246793        0.5281817908        2.2557424503
 C          0.1084445503        1.6857946263        2.8170175575
 C          1.3139180645        2.2094530652        2.3841062492
 C          2.0225875862        1.5515397369        1.3863063503
 N          3.2715882750        2.0320820356        0.9757423273
 S          3.8767157905        1.7852552615       -0.5598966706
 O          4.9725354840        2.7276956942       -0.6570887213
 O          2.8640042005        1.8914498619       -1.5828348226
 C          4.5464933390        0.1355164606       -0.5187988635
 C          5.1617165874       -0.3163578998        0.6318800531
 C          5.7187493083       -1.5851790295        0.6383516155
 C          5.6615479579       -2.3733942814       -0.5008742046
 C          5.0458196756       -1.9028900957       -1.6503683706
 C          4.4814239566       -0.6366168780       -1.6615683923
 H          3.9802544950       -0.2366234821       -2.5290583338
 H          5.0020268162       -2.5161643762       -2.5366597602
 H          6.0964732319       -3.3603014481       -0.4937654594
 H          6.1965732409       -1.9552509661        1.5310726366
 H          5.1889549978        0.3214496174        1.4993268934
 H          3.5373932313        2.9296947328        1.3519410897
 H          1.7029194179        3.1196045483        2.8145087677
 H         -0.4454641522        2.1902001148        3.5946327602
 H         -1.3388379245        0.1226305946        2.5893125554
 C         -0.2885452690       -1.3913193625        0.6582464582
 H         -0.2634383964       -2.1709142258        1.4342191577
 C          0.4581068045       -1.8969470164       -0.5588796662
 C          1.6391081226       -2.8042496119       -0.3927491916
 C          0.3461873904       -3.3461790929       -0.9219005837
 H          0.2845983043       -3.6123041794       -1.9663888222
 H         -0.2533867127       -3.9710938549       -0.2759239362
 H          2.4700755611       -2.6994508166       -1.0736726494
 H          1.9254044205       -3.0703651228        0.6133776388
 H          0.4720642841       -1.1756187040       -1.3690178637
 O         -1.3316659407        0.6916026026       -1.0408599107
