  62
        -98.94179070
 C         -1.1852795377       -1.5335472693        0.4894700275
 C         -2.1494680712       -1.2075727278       -0.4927168169
 C         -3.2294321765       -0.3008020997       -0.0681805011
 C         -3.2470491923        0.1651549340        1.1922215795
 C         -4.2665939571        1.0661678100        1.8428723735
 C         -4.7480500041        2.2833213343        1.0408330752
 C         -3.7040668931        2.9009157218        0.0984096932
 H         -3.6642301260        3.9783673524        0.2719314743
 H         -2.7087484008        2.5069754713        0.3173314386
 C         -4.0298162255        2.6784274621       -1.3807737695
 H         -3.4866128102        3.4200340385       -1.9716505047
 H         -5.0972879605        2.8535959948       -1.5341939359
 C         -3.6629153010        1.3029956891       -1.9358883962
 H         -4.0389018784        1.2420245633       -2.9601991725
 H         -2.5742423742        1.2069982856       -1.9876924844
 C         -4.2008086934        0.1026544180       -1.1392637220
 H         -5.1886927617        0.3082457882       -0.7342772672
 H         -4.2709430945       -0.7489832556       -1.8213301748
 H         -5.0677218970        3.0324458989        1.7672883978
 H         -5.6294498153        2.0122726463        0.4608920419
 H         -5.1315983147        0.4572429488        2.1219452230
 H         -3.7957800212        1.4035784923        2.7693955253
 O         -2.2954040692       -0.1752333042        2.1070129447
 C         -1.2294861086       -0.9916958075        1.7718228918
 O         -0.3996575888       -1.1603672840        2.6901935658
 H          0.4315728831        0.2166022134       -0.1375937351
 C          0.9520045239       -0.3383810719       -0.9024210006
 C          0.8219581165       -1.7185971399       -0.9542377322
 C          1.4782077071       -2.4050533221       -1.9683862846
 C          2.2284068016       -1.7153109079       -2.9056108113
 C          2.3623338673       -0.3396711665       -2.8423039340
 C          1.7143158949        0.3546802292       -1.8275507507
 N          1.8148132228        1.7495593471       -1.7074173296
 S          1.8889113498        2.4242826444       -0.1771033954
 O          0.5883367759        2.4174229456        0.4443430156
 O          2.4745638020        3.7303763042       -0.3943548535
 C          3.0420374082        1.3897388852        0.7083988999
 C          4.3682142324        1.4635324688        0.3249945140
 C          5.2949277446        0.6382928140        0.9388498975
 C          4.8813005482       -0.2507722317        1.9198722315
 C          3.5496139958       -0.3084626557        2.2980695159
 C          2.6169776312        0.5181492893        1.6895258970
 H          1.5756908289        0.4819871091        1.9709892284
 H          3.2175242037       -0.9951584525        3.0606255808
 H          5.5994931215       -0.9001977065        2.3949775238
 H          6.3323580966        0.6867438671        0.6499559918
 H          4.6507361094        2.1755232487       -0.4334260159
 H          2.4619660090        2.1893355122       -2.3449204026
 H          2.9509443214        0.1934580711       -3.5727822909
 H          2.7241439116       -2.2590975930       -3.6951855793
 H          1.3946975352       -3.4777664653       -2.0299051196
 C          0.0064978831       -2.3967140532        0.1220938871
 H          0.6314982374       -2.4516567575        1.0267085033
 C         -0.4351462615       -3.7968049388       -0.2506069920
 C          0.4439267198       -4.9727816557        0.0489664034
 C         -0.8063317659       -4.7502708066        0.8440599823
 H         -1.6450852593       -5.4121417150        0.6895761523
 H         -0.7124414756       -4.3962427479        1.8607488416
 H          1.3897183071       -4.7813502967        0.5329551710
 H          0.4625551989       -5.7938581542       -0.6517379295
 H         -1.0312526374       -3.8162610902       -1.1552943565
 O         -2.1153475250       -1.6511696333       -1.6700054731
