  62
        -98.93588670
 C         -2.3762767189       -0.7257998169        0.2284803183
 C         -2.4920953526        0.6880881250        0.2566258320
 C         -3.7119628592        1.2594677211       -0.3276272725
 C         -4.6306098130        0.4335914071       -0.8603966710
 C         -5.9433764388        0.8688876744       -1.4430977909
 C         -7.0502082215        0.8710530068       -0.3795022260
 C         -6.6648761862        1.5943796204        0.9108425716
 H         -7.5310478803        1.5594722871        1.5750618185
 H         -5.8603479424        1.0425778700        1.4024445856
 C         -6.2295326879        3.0532669206        0.7146615078
 H         -6.5673349730        3.4137095640       -0.2575349433
 H         -6.7140140165        3.6688678878        1.4754118873
 C         -4.7234759747        3.2886208667        0.8456842402
 H         -4.3619070869        2.8464117722        1.7776221372
 H         -4.5511380578        4.3664856806        0.9079312006
 C         -3.8611355325        2.7547400584       -0.3052792142
 H         -4.2542800259        3.1163158423       -1.2578230436
 H         -2.8504128907        3.1539102083       -0.1771311724
 H         -7.9395520666        1.3365684625       -0.8079077142
 H         -7.2936332380       -0.1645009724       -0.1314588167
 H         -5.8320812218        1.8639049586       -1.8694404642
 H         -6.2152720448        0.1707748659       -2.2364453405
 O         -4.4821050422       -0.9130933795       -0.8843326652
 C         -3.3601801911       -1.5337039981       -0.3443251241
 O         -3.3828031377       -2.7727412381       -0.4476468445
 H          1.4486829968       -0.4933365007        1.0005246600
 C          1.2431655179       -1.0087222780        0.0744090292
 C         -0.0329838638       -1.4878958695       -0.1840115933
 C         -0.2775464819       -2.1274784223       -1.3955657829
 C          0.7365433238       -2.2773861203       -2.3234656594
 C          2.0063364178       -1.7924337763       -2.0650638558
 C          2.2635589528       -1.1570183085       -0.8554532579
 N          3.5588937247       -0.7026527908       -0.5551303495
 S          3.7586664908        0.7096187421        0.3491302326
 O          3.4904888311        0.4148023399        1.7338757153
 O          3.0048013617        1.7919318202       -0.2424959384
 C          5.5072621585        0.9736448301        0.1214260479
 C          6.3913802551        0.2152064843        0.8654816435
 C          7.7520972505        0.3939197424        0.6744902780
 C          8.2038887183        1.3225112224       -0.2516835305
 C          7.3048127733        2.0779988897       -0.9890529098
 C          5.9422069525        1.9030540655       -0.8041001393
 H          5.2061483814        2.4730614688       -1.3481007306
 H          7.6588365162        2.8016609570       -1.7054720920
 H          9.2635361613        1.4604660156       -0.3976115854
 H          8.4542941128       -0.1894691478        1.2477755875
 H          5.9940278644       -0.4866582712        1.5798595956
 H          4.1635077888       -0.6983462660       -1.3659480947
 H          2.7945488041       -1.9075221027       -2.7935519818
 H          0.5343579025       -2.7737712273       -3.2607155642
 H         -1.2672216265       -2.5084441174       -1.5974379270
 C         -1.1209408477       -1.3151129973        0.8458265361
 H         -0.7718249796       -0.5478086200        1.5566331230
 C         -1.3791958554       -2.5853888104        1.6454162907
 C         -0.9051506509       -3.9405729143        1.2241631728
 C         -0.2493623545       -3.2472185026        2.3778795210
 H         -0.4262820974       -3.6165004740        3.3767003237
 H          0.7412135021       -2.8444495518        2.2244619333
 H         -1.5562113929       -4.7784576447        1.4203920236
 H         -0.3561669159       -4.0243648545        0.2999580619
 H         -2.3358954072       -2.5509145777        2.1570541962
 O         -1.6123217500        1.4401612315        0.7595796283
