  62
        -98.94343452
 C         -1.9566224208       -0.8597068910        0.0413784666
 C         -2.2392198625        0.1064725003        1.0342490401
 C         -2.5046675359        1.4672027253        0.5519985430
 C         -2.4244210745        1.7236388448       -0.7666294349
 C         -2.7100063385        3.0543778380       -1.3994384601
 C         -4.1865668719        3.1752971405       -1.8022172635
 C         -5.1629878140        2.7868456715       -0.6920795815
 H         -6.1727988203        2.9383305925       -1.0791641548
 H         -5.0549685470        1.7205711650       -0.4808233455
 C         -4.9902044625        3.5802276198        0.6105423107
 H         -4.4180362544        4.4883980565        0.4181878059
 H         -5.9754598795        3.8860279401        0.9684083997
 C         -4.3280075539        2.7974260909        1.7458507659
 H         -4.8413458582        1.8420933107        1.8809388654
 H         -4.4497748034        3.3683686557        2.6701618994
 C         -2.8290536312        2.5170217566        1.5774937075
 H         -2.3004365669        3.4467338792        1.3553069580
 H         -2.4517266369        2.1303150756        2.5291647995
 H         -4.3757091907        4.2044490781       -2.1125866144
 H         -4.3647874332        2.5221252070       -2.6593850130
 H         -2.4448612119        3.8453136133       -0.7003661805
 H         -2.0873048953        3.1485929637       -2.2906884536
 O         -2.1197558863        0.7764000406       -1.6895721655
 C         -1.8740987949       -0.5348176001       -1.3124428721
 O         -1.6052094564       -1.3000512675       -2.2584720727
 H          0.5169346025       -0.7217756036        0.3513993452
 C          0.7451230121       -1.7353554986        0.0540362029
 C         -0.2640128679       -2.6896202680        0.0394158924
 C          0.0590002519       -3.9890497171       -0.3316517473
 C          1.3569197968       -4.3132243390       -0.6875286357
 C          2.3542241993       -3.3566189181       -0.6850096872
 C          2.0401847870       -2.0507202622       -0.3205578518
 N          3.0212494562       -1.0476411032       -0.3663084963
 S          2.8065243924        0.4225386528        0.4170540644
 O          2.5560167900        0.2176254186        1.8276932351
 O          1.8302945354        1.2026222550       -0.3029633831
 C          4.4296097388        1.1223162735        0.1832619842
 C          5.3521531357        1.0675122548        1.2107986141
 C          6.6196589975        1.5887911001        1.0024914747
 C          6.9420097198        2.1507202118       -0.2235531607
 C          6.0049629153        2.1999892439       -1.2452593559
 C          4.7358998663        1.6813976074       -1.0431666934
 H          3.9713468559        1.7040849240       -1.8025094814
 H          6.2575990639        2.6402466707       -2.1963309782
 H          7.9288132792        2.5554625753       -0.3834765954
 H          7.3489120888        1.5548258834        1.7956976836
 H          5.0527126600        0.6284589325        2.1488331510
 H          3.9665291273       -1.3957411943       -0.2939901456
 H          3.3632866576       -3.6091785606       -0.9716283833
 H          1.5943552775       -5.3268796482       -0.9726395032
 H         -0.7066921938       -4.7474525227       -0.3435999852
 C         -1.6554920539       -2.2840753687        0.4637120083
 H         -1.6839496863       -2.2747462150        1.5649062304
 C         -2.7299817591       -3.2253307432       -0.0438088721
 C         -3.1432668394       -4.4187806586        0.7632107811
 C         -4.0602103244       -3.2398412668        0.6462221719
 H         -4.9524583002       -3.3331207759        0.0456116856
 H         -4.1768225179       -2.5940040652        1.5046132514
 H         -3.4100954537       -5.3257782114        0.2419473310
 H         -2.6476998731       -4.5794236527        1.7088472609
 H         -2.7250843764       -3.3108979673       -1.1247260836
 O         -2.2692123048       -0.1590053220        2.2686214495
