  62
        -98.94172663
 C         -1.7187680412       -0.1579217975        0.4298296795
 C         -2.8294580519       -0.9075262980        0.8972761168
 C         -4.1441169841       -0.2624456673        0.7876131244
 C         -4.2195603882        0.9942321512        0.3141771006
 C         -5.4957233508        1.7527377140        0.0947277826
 C         -6.0303470350        1.5374800894       -1.3281394667
 C         -6.0903009104        0.0694394384       -1.7506905666
 H         -6.5103004854        0.0384045032       -2.7584238970
 H         -5.0733074612       -0.3244264112       -1.8157516800
 C         -6.9224423215       -0.8255594054       -0.8215727489
 H         -7.5585987321       -1.4688110115       -1.4332107695
 H         -7.5801984103       -0.2103072418       -0.2066242583
 C         -6.0973607250       -1.7442702464        0.0815953646
 H         -5.3737010588       -2.2975567777       -0.5225086675
 H         -6.7741504911       -2.4755236307        0.5313991838
 C         -5.3440262154       -1.0541301774        1.2256778441
 H         -6.0334728966       -0.4264538961        1.7938465954
 H         -4.9612329064       -1.8343577544        1.8900693967
 H         -5.3789378550        2.0682754701       -2.0265286661
 H         -7.0271546828        1.9775224349       -1.3927060435
 H         -5.2939231231        2.8152136299        0.2409182583
 H         -6.2351725893        1.4291984899        0.8247971259
 O         -3.1288250540        1.7068159708       -0.0625181520
 C         -1.8520459034        1.1548540695       -0.0255532157
 O         -0.9612147753        1.9345706068       -0.4092266054
 O         -2.7239154137       -2.0634008335        1.3867105131
 C         -0.3548878710       -0.8217205980        0.4983440428
 C          0.6674515965        0.1148271567        1.0876436287
 C          0.5568951647        0.4716674160        2.4293859748
 C          1.4653861601        1.3361570240        3.0076009590
 C          2.5171799384        1.8463851379        2.2663851482
 C          2.6346340221        1.4985876492        0.9265801156
 C          1.7134578325        0.6376408607        0.3449588804
 H          1.7989883456        0.4236508607       -0.7064748431
 N          3.6869542790        1.9986200707        0.1491315819
 S          4.3557778051        1.0746135994       -1.0651683987
 O          5.6980415981        1.5972278217       -1.2143962948
 O          3.5387273331        1.1082058643       -2.2516824529
 C          4.4226010024       -0.5881303687       -0.4179265613
 C          3.8607319229       -1.6227175179       -1.1371850355
 C          3.9166966592       -2.9082274618       -0.6220653936
 C          4.5292156399       -3.1351858274        0.6003757909
 C          5.0953868192       -2.0863009139        1.3086930244
 C          5.0447756419       -0.8001830626        0.7965600310
 H          5.4828983509        0.0335400176        1.3202724554
 H          5.5737743444       -2.2669427071        2.2577131123
 H          4.5665579046       -4.1356344818        1.0016427473
 H          3.4791096109       -3.7252837349       -1.1736683204
 H          3.3879366105       -1.4001788178       -2.0806226575
 H          4.3723109706        2.5486845994        0.6439363644
 H          3.2302589914        2.5207696123        2.7155106177
 H          1.3610207007        1.6108141050        4.0464210350
 H         -0.2628986760        0.0705141552        3.0095838308
 H         -0.4963419306       -1.6560991694        1.2056353030
 C          0.1027425438       -1.4407528129       -0.8137345015
 C         -0.8826885259       -2.0051634663       -1.7913341696
 C         -0.1080063924       -0.7703514054       -2.1367031294
 H          0.6752800318       -0.8368725331       -2.8784428476
 H         -0.6210453296        0.1789697524       -2.1424431296
 H         -0.6375190021       -2.9272787998       -2.2961590498
 H         -1.9327837126       -1.8991034898       -1.5605594343
 H          1.0309151911       -1.9913605409       -0.6924841674
