  62
        -98.93318402
 C         -1.6331117907       -1.1133040300        0.5105214289
 C         -1.9807889504        0.2606298601        0.4575586690
 C         -3.3693889303        0.5947422005        0.0937608791
 C         -4.2202305706       -0.4041840393       -0.2005856109
 C         -5.6747071306       -0.3275351389       -0.5906034208
 C         -6.0596489204        0.7565494613       -1.6089570507
 C         -6.8760737500        1.8989895615       -1.0021386406
 H         -7.5830923701        1.4777264516       -0.2843432806
 H         -7.4603674500        2.3705626617       -1.7955019606
 C         -6.0557096297        2.9927574212       -0.3206644806
 H         -6.7550683395        3.6634008214        0.1841956294
 H         -5.5344681696        3.5792487311       -1.0803382506
 C         -5.0265085597        2.4999841409        0.6986731193
 H         -5.4398005299        1.6883955710        1.2964739493
 H         -4.8150877595        3.3239143908        1.3835328593
 C         -3.6953392799        2.0631651506        0.0686260692
 H         -2.8639497997        2.5382470403        0.5983970091
 H         -3.6359432999        2.4200925806       -0.9635725708
 H         -6.6663185006        0.2843847315       -2.3834486507
 H         -5.1648212103        1.1448592811       -2.0928900008
 H         -6.2708084805       -0.2110514587        0.3180233993
 H         -5.9118115709       -1.3152686188       -0.9925062808
 O         -3.8403363309       -1.7112968894       -0.1537691410
 C         -2.5600771510       -2.1062315297        0.1970697989
 O         -2.4046235814       -3.3434508598        0.1819837489
 O         -1.1591344501        1.1803452899        0.7185844290
 C         -0.2057133408       -1.4331103604        0.9152935388
 C          0.6829874891       -1.6850749306       -0.2793427413
 C          0.4319609287       -2.7226201705       -1.1709087913
 C          1.2833579886       -2.9459707407       -2.2372239214
 C          2.4080299888       -2.1603338810       -2.4207931714
 C          2.6685991091       -1.1226057411       -1.5342072614
 C          1.7970243493       -0.8838234209       -0.4809314213
 H          1.9940114895       -0.0649745610        0.1938207787
 N          3.7937826293       -0.3025784614       -1.6937481215
 S          4.6404689496        0.2293964984       -0.3508337415
 O          5.9598226096        0.5407953680       -0.8580190416
 O          4.5836961594       -0.7289768317        0.7277821885
 C          3.8308038900        1.7430445586        0.1172777586
 C          3.6483043302        2.7138267986       -0.8473058613
 C          3.0352633205        3.9037138588       -0.4904893412
 C          2.6206718207        4.1032180389        0.8176470588
 C          2.8156029405        3.1207239388        1.7755590287
 C          3.4272354201        1.9279092086        1.4243865987
 H          3.5921631500        1.1347618785        2.1371424586
 H          2.4895265106        3.2760809988        2.7915836488
 H          2.1403417410        5.0288061590        1.0931788089
 H          2.8801455407        4.6709743189       -1.2318942812
 H          3.9863010701        2.5235762786       -1.8523500814
 H          4.4104169392       -0.5657603715       -2.4484901915
 H          3.0795050287       -2.3477819311       -3.2450687815
 H          1.0770135683       -3.7510112906       -2.9265380914
 H         -0.4358969714       -3.3462586903       -1.0210182413
 H          0.1620752395       -0.5224637305        1.4076781388
 C         -0.0860267010       -2.5855681105        1.8950124887
 C          1.2052552690       -2.7661134208        2.6340186886
 C         -0.0179800409       -2.2992950205        3.3634695587
 H         -0.5041049610       -2.9820500104        4.0441704087
 H         -0.0634078806       -1.2658318205        3.6746832888
 H          1.5577903487       -3.7704999209        2.8128971386
 H          1.9973130991       -2.0563561010        2.4431150686
 H         -0.6154151613       -3.4754635103        1.5809164487
