  62
        -98.93615791
 C         -2.4855391496       -0.9347560895        0.5788792480
 C         -2.8453437075        0.3056415450        1.1669730247
 C         -4.2335253626        0.7390237721        0.9806207669
 C         -5.0888741962       -0.0473660632        0.3029814549
 C         -6.5431320344        0.2397289416        0.0445952451
 C         -6.7936115550        1.1450315556       -1.1692708901
 C         -6.4218672508        2.6152327836       -0.9722851499
 H         -6.8505701419        3.1692054311       -1.8097571606
 H         -6.8904757547        2.9883574338       -0.0611601439
 C         -4.9114701271        2.8859043927       -0.9241878421
 H         -4.3728800061        2.0286215442       -1.3349193182
 H         -4.6745865559        3.7444830993       -1.5565662678
 C         -4.3650243032        3.1881132906        0.4712996934
 H         -4.7958105392        4.1216514706        0.8402517443
 H         -3.2829424675        3.3231225970        0.3939229903
 C         -4.6301460391        2.0858828412        1.5050806313
 H         -4.0204294099        2.2902251954        2.3887281028
 H         -5.6804331813        2.0867197873        1.7961609484
 H         -6.2455577826        0.7421604933       -2.0239950443
 H         -7.8595949646        1.0899543203       -1.4016264714
 H         -7.0219860347       -0.7242666071       -0.1397515532
 H         -6.9911339431        0.6868195881        0.9324366163
 O         -4.7158144161       -1.2413686479       -0.2243926620
 C         -3.4076377125       -1.7074234918       -0.1291607618
 O         -3.2283347958       -2.7957145216       -0.7039654470
 H          1.3524162418       -0.1410026794        0.9252415270
 C          1.0460087678       -0.2935402552       -0.0991659909
 C         -0.1733022025       -0.8923377129       -0.3775368010
 C         -0.5541574816       -1.0502234213       -1.7065723620
 C          0.2765235059       -0.6250101675       -2.7272897727
 C          1.5051633671       -0.0537485237       -2.4459930930
 C          1.8913155030        0.1154363619       -1.1215516214
 N          3.1225438991        0.7061534358       -0.7985817219
 S          3.9402344260        0.1220519787        0.5604860750
 O          3.8628417979       -1.3205478299        0.5968887626
 O          3.4571401321        0.8166046060        1.7273424199
 C          5.6034774134        0.6489527345        0.1950453156
 C          6.5072285248       -0.2589350470       -0.3235021989
 C          7.7895904079        0.1713528142       -0.6268084943
 C          8.1429060058        1.4948197411       -0.4107156435
 C          7.2246514585        2.3942450447        0.1111671769
 C          5.9415323466        1.9706632853        0.4183563918
 H          5.1978443653        2.6300624779        0.8348646383
 H          7.5038983878        3.4216512179        0.2805711535
 H          9.1413000709        1.8271002124       -0.6474572191
 H          8.5068445080       -0.5260617902       -1.0286241945
 H          6.1896672929       -1.2792092981       -0.4673372661
 H          3.7347180122        0.8064593173       -1.5967789703
 H          2.1567992269        0.2650732232       -3.2452523223
 H         -0.0304197317       -0.7536556294       -3.7544501056
 H         -1.5005939579       -1.5200799778       -1.9288032760
 C         -1.0434171453       -1.3715989253        0.7562493943
 H         -0.7024056912       -0.8501583638        1.6661470229
 C         -0.8844359133       -2.8640134730        1.0123078335
 C         -0.3189796286       -3.8217189130        0.0116803625
 C          0.4806365547       -3.4511229038        1.2225899580
 H          0.6096907752       -4.1859981840        2.0031268871
 H          1.3362839591       -2.8046978119        1.0845306784
 H         -0.7606985467       -4.8048235410       -0.0429947094
 H         -0.0051852795       -3.4337369013       -0.9443804243
 H         -1.6788002509       -3.2484783247        1.6448290740
 O         -2.0396031050        1.0154201155        1.8284707766
