  62
        -98.94340675
 C         -2.5137106861       -1.1502428483        0.0089736296
 C         -3.4409795456       -0.5674972104        0.9148020047
 C         -4.3650308273        0.4238316978        0.3566319588
 C         -4.3200679726        0.7077263747       -0.9572523632
 C         -5.2104696716        1.6760739386       -1.6872082808
 C         -4.7431115655        3.1358529888       -1.6058472192
 C         -4.9361820982        3.8058953028       -0.2448138947
 H         -4.7742122909        4.8759258166       -0.3892194064
 H         -5.9686518955        3.6741820690        0.0802035770
 C         -3.9819284394        3.3057279602        0.8488493419
 H         -3.1423963249        2.7795390770        0.3882992579
 H         -3.5659015093        4.1599400569        1.3876524954
 C         -4.6305320414        2.3889079921        1.8861523128
 H         -3.8571728879        2.0647535413        2.5871470249
 H         -5.3832812405        2.9460088596        2.4482379334
 C         -5.2904017120        1.1354742144        1.2965614558
 H         -6.2176217498        1.4009764437        0.7892057603
 H         -5.5221250459        0.4513916164        2.1164600903
 H         -3.6886806564        3.1812093641       -1.8881294147
 H         -5.3104908390        3.7009377067       -2.3489699228
 H         -6.2285587539        1.5967211406       -1.3050127834
 H         -5.2077212513        1.3712922893       -2.7359975927
 O         -3.4396710681        0.1083257250       -1.7993448836
 C         -2.5026817001       -0.8086158976       -1.3431267904
 O         -1.7481040983       -1.2261783219       -2.2463399995
 O         -3.4965605789       -0.8716739850        2.1355853919
 C         -1.5429750273       -2.1615364889        0.5957139165
 C         -0.1903977680       -1.5425152949        0.8598255770
 C          0.3142060671       -1.4594199243        2.1523068606
 C          1.5581650197       -0.9006574792        2.3880547832
 C          2.3200512269       -0.4080821147        1.3438327666
 C          1.8243790482       -0.4847250803        0.0485989436
 C          0.5813935822       -1.0560469374       -0.1857518287
 H          0.1986871497       -1.1090523223       -1.1944388133
 N          2.5709697596        0.0417036445       -1.0184846588
 S          4.1964534942       -0.3503523127       -1.1429986050
 O          4.5258999525       -0.1682240395       -2.5396761686
 O          4.4742649584       -1.6526603378       -0.5825647276
 C          5.0122928960        0.9114021642       -0.1868064883
 C          4.7287766825        2.2320861045       -0.4748894866
 C          5.3624351366        3.2265429420        0.2528592645
 C          6.2665916118        2.8858559660        1.2480443090
 C          6.5435238375        1.5554190262        1.5224455626
 C          5.9119340064        0.5556617240        0.7989068802
 H          6.0908653499       -0.4919699343        0.9813256462
 H          7.2467736163        1.2926733405        2.2962659817
 H          6.7579261420        3.6622916432        1.8128774686
 H          5.1489893175        4.2622326307        0.0425682592
 H          4.0219705427        2.4546648219       -1.2569282739
 H          2.1071419588       -0.0402483639       -1.9117965322
 H          3.2881245538        0.0308957840        1.5216631647
 H          1.9376507315       -0.8435147401        3.3967962337
 H         -0.2813479331       -1.8267831401        2.9752631927
 H         -1.9761688417       -2.4390963340        1.5661630542
 C         -1.4034158175       -3.4188706954       -0.2404163847
 C         -0.9209308221       -4.6767516703        0.4147516867
 C         -2.3510258926       -4.5573702684       -0.0176178190
 H         -2.6832925070       -5.1251767488       -0.8736994963
 H         -3.1060299384       -4.4365047526        0.7455329560
 H         -0.2658748825       -5.3284457438       -0.1429462943
 H         -0.7064745575       -4.6392235705        1.4720240288
 H         -1.0878853801       -3.2287155148       -1.2581630647
