  62
        -98.92998755
 C          2.3553413597        0.8384316586        0.2836832827
 C          2.5013232329       -0.5631521810        0.4247873870
 C          3.7366248598       -1.1775772784       -0.0984088887
 C          4.6510926352       -0.3830724371       -0.6847185412
 C          5.9919701728       -0.7621480754       -1.2553961434
 C          7.0481598153       -1.0166416909       -0.1681028655
 C          6.5640072284       -1.8510692421        1.0147114956
 H          7.3648706917       -1.8688475731        1.7586181412
 H          5.7059280059       -1.3574392424        1.4747267880
 C          6.2005549084       -3.2970460125        0.6857153932
 H          7.0711358283       -3.7963455617        0.2546712869
 H          5.9656744242       -3.7950202714        1.6299567229
 C          5.0123621212       -3.4905000539       -0.2591087145
 H          4.7183429900       -4.5426386403       -0.2013016143
 H          5.2965184567       -3.3062185349       -1.2916338290
 C          3.7740424492       -2.6739491754        0.0981194479
 H          2.9203166312       -3.0654485232       -0.4689701676
 H          3.5195690150       -2.8469663245        1.1503006963
 H          7.9092531497       -1.5017470359       -0.6306570629
 H          7.3734274891       -0.0482116895        0.2195095193
 H          5.8897731586       -1.6253642146       -1.9062412273
 H          6.3200176278        0.0804066945       -1.8680068150
 O          4.4700047966        0.9616517509       -0.8009852874
 C          3.3373681144        1.6114136840       -0.3367343445
 O          3.3472417074        2.8384089420       -0.5414336688
 H         -1.4757208224        0.5943118512        1.0062273322
 C         -1.2627749928        1.0471896702        0.0496388900
 C          0.0091228950        1.5307892443       -0.2208774622
 C          0.2638058694        2.0887612832       -1.4701641541
 C         -0.7363769253        2.1551683195       -2.4225720715
 C         -2.0018854530        1.6657533273       -2.1516076768
 C         -2.2688531521        1.1108666734       -0.9051548954
 N         -3.5606651236        0.6525910967       -0.5945764574
 S         -3.7431080999       -0.7159609378        0.3788627774
 O         -3.4960082881       -0.3473024040        1.7496069507
 O         -2.9613567999       -1.8107152757       -0.1506734900
 C         -5.4836499497       -1.0255672024        0.1466299484
 C         -5.8904939986       -1.9847498941       -0.7612320055
 C         -7.2473987825       -2.1937866232       -0.9526271382
 C         -8.1688689222       -1.4421551638       -0.2392032951
 C         -7.7451690057       -0.4835145718        0.6694126281
 C         -6.3902394686       -0.2704473559        0.8665507670
 H         -6.0138306410        0.4559052166        1.5676803017
 H         -8.4645904786        0.0967290120        1.2242967619
 H         -9.2240239283       -1.6067042836       -0.3901680514
 H         -7.5797806462       -2.9406355948       -1.6554937161
 H         -5.1378982593       -2.5507658191       -1.2865333026
 H         -4.1530198509        0.5902805561       -1.4121601735
 H         -2.7792290887        1.7153563770       -2.8990052788
 H         -0.5264386842        2.5888365129       -3.3888103757
 H          1.2503264377        2.4724779751       -1.6821233440
 C          1.0816752036        1.4513595020        0.8358710317
 H          0.7324734508        0.7335560862        1.5965030442
 C          1.3103161684        2.7815298131        1.5415588277
 C          0.8227146210        4.0943143898        1.0145837321
 C          0.1607824386        3.4782589813        2.2080201476
 H          0.3179912638        3.9230478966        3.1789429203
 H         -0.8214859206        3.0497999260        2.0716130525
 H          1.4590395384        4.9542143943        1.1565563806
 H          0.2854588811        4.1013811364        0.0797244502
 H          2.2602903186        2.7998757372        2.0664076252
 O          1.6317211288       -1.2865924624        0.9859594173
