  62
        -98.93524057
 C         -2.0872226657       -0.9302076150       -0.4349398488
 C         -3.0569894786       -0.6717519392        0.5665625811
 C         -3.6115575283        0.6921759340        0.6462845297
 C         -3.1581792021        1.6216537403       -0.2148060849
 C         -3.5863929672        3.0584705266       -0.3517166416
 C         -4.9472102414        3.2079261134       -1.0511114782
 C         -6.0204749542        2.2284103355       -0.5838164266
 H         -6.8945479403        2.3629738226       -1.2263048682
 H         -5.6629283738        1.2079392616       -0.7323151566
 C         -6.4739927079        2.4018706838        0.8636779996
 H         -7.2991587840        1.7049218935        1.0304845150
 H         -6.8616891496        3.4139832881        0.9989704347
 C         -5.4116716855        2.1419875086        1.9340218560
 H         -4.7290953112        2.9829019625        2.0238559645
 H         -5.9299488010        2.0603092992        2.8939357671
 C         -4.6269112057        0.8463950529        1.7528214838
 H         -4.0817918072        0.6358021148        2.6811864535
 H         -5.3295100821        0.0132140659        1.6373448035
 H         -4.7950874740        3.0489787911       -2.1213956964
 H         -5.2971089786        4.2316049082       -0.9081191972
 H         -3.5949681366        3.5382936766        0.6225533039
 H         -2.8257109883        3.5548603885       -0.9584835423
 O         -2.2184684268        1.3331534965       -1.1573330942
 C         -1.6529716810        0.0794134407       -1.2925314391
 O         -0.8011118136        0.0182372540       -2.2037581596
 H          0.7879635552       -1.0923905818       -1.1486705519
 C          0.8928282224       -1.6658387370       -0.2393283574
 C         -0.1943152931       -2.3821287238        0.2411304194
 C         -0.0477100291       -3.0927181867        1.4263582330
 C          1.1546169422       -3.0795177420        2.1126500009
 C          2.2318825300       -2.3533625594        1.6366833985
 C          2.0916210544       -1.6370833291        0.4556384258
 N          3.1770651433       -0.8636457843       -0.0302576746
 S          3.5128951536        0.4879240845        0.9335113084
 O          3.9709112948        0.0239705536        2.2182241476
 O          2.3772248279        1.3871914160        0.9514802618
 C          4.8652107286        1.2177660898        0.0321602307
 C          4.5955596088        2.1825981615       -0.9192459555
 C          5.6472520326        2.7229550711       -1.6424924725
 C          6.9426070469        2.2882173929       -1.4054427884
 C          7.1968651917        1.3177858887       -0.4477485716
 C          6.1499552730        0.7740453349        0.2792952729
 H          6.2987506941        0.0238632628        1.0379571609
 H          8.2055729225        0.9839874724       -0.2657987133
 H          7.7585410283        2.7109570020       -1.9700577974
 H          5.4513846478        3.4785503172       -2.3863225177
 H          3.5737603640        2.4968917223       -1.0646171704
 H          2.9664878788       -0.5203095038       -0.9605742148
 H          3.1635914248       -2.3102572840        2.1760686293
 H          1.2518829619       -3.6346231283        3.0334406036
 H         -0.8923885870       -3.6385518688        1.8212773010
 C         -1.5178553244       -2.3393521977       -0.4850136339
 H         -2.2288474480       -2.9567608734        0.0801745314
 C         -1.4014115783       -2.9005014140       -1.8879570428
 C         -1.3059075074       -4.3849305910       -2.0679255305
 C         -2.5533393959       -3.6594636721       -2.4720882898
 H         -2.7664878202       -3.5407734960       -3.5237553402
 H         -3.4348314644       -3.7793007047       -1.8592008292
 H         -0.6598109922       -4.7684703076       -2.8423540847
 H         -1.3414946592       -4.9982389026       -1.1803450277
 H         -0.8304654554       -2.2725896368       -2.5590902413
 O         -3.4600593042       -1.5572013840        1.3686801539
