  62
        -98.94031820
 C         -1.8246562086        0.8006758481        0.8387079577
 C         -2.0777291022        0.3282834816       -0.4730375560
 C         -3.4959302191        0.2239797462       -0.8473892015
 C         -4.4518252361        0.6168704910        0.0126871403
 C         -5.9353913636        0.5959633758       -0.2375054381
 C         -6.5958235195       -0.7628272971        0.0329621760
 C         -6.2922730662       -1.8502413521       -0.9984968726
 H         -6.9849668981       -2.6727468290       -0.8093664174
 H         -6.5044287463       -1.4698721581       -1.9982177828
 C         -4.8567282240       -2.3913961130       -0.9447874893
 H         -4.4006384442       -2.1196179563        0.0099527914
 H         -4.8773033553       -3.4825477629       -0.9896131303
 C         -3.9540539490       -1.9082810150       -2.0800785754
 H         -4.3300996438       -2.2867662505       -3.0331226147
 H         -2.9550753863       -2.3230698155       -1.9237753165
 C         -3.8239544788       -0.3825999865       -2.1782788951
 H         -4.7418432065        0.0484182868       -2.5775082259
 H         -3.0016529729       -0.1502532771       -2.8594656067
 H         -7.6761283500       -0.6013306353        0.0522723563
 H         -6.2942192116       -1.1066748661        1.0251284612
 H         -6.3744071264        1.3329831094        0.4385487252
 H         -6.1382651952        0.9025919734       -1.2640890321
 O         -4.1643582646        1.1199980896        1.2433370596
 C         -2.8551756521        1.2141758162        1.6867539270
 O         -2.7384994811        1.6894215153        2.8344221843
 O         -1.1826271005        0.0111709745       -1.2968515865
 C         -0.4101659425        0.9537250607        1.3697317672
 C          0.4662455492        1.6169323209        0.3353300990
 C          0.0605788090        2.8374814037       -0.2004275745
 C          0.8266828647        3.4830378141       -1.1498749607
 C          2.0317813040        2.9419819355       -1.5644676959
 C          2.4525462714        1.7337192865       -1.0266480247
 C          1.6673265906        1.0746180728       -0.0906052156
 H          2.0029422130        0.1250153917        0.2895204467
 N          3.6690703570        1.1508726449       -1.4163749298
 S          4.6738632001        0.5251664559       -0.2324280725
 O          4.5415075005        1.2487200112        1.0111470061
 O          5.9923044838        0.5271965546       -0.8307835408
 C          4.1467599852       -1.1616039165       -0.0198756660
 C          3.9553507625       -1.9434932274       -1.1416301313
 C          3.5832482833       -3.2680392014       -0.9775374105
 C          3.4162891273       -3.7875636690        0.2973341492
 C          3.6153989132       -2.9899283327        1.4139719252
 C          3.9850304756       -1.6633488787        1.2563104906
 H          4.1417215462       -1.0048913341        2.0961007391
 H          3.4828052227       -3.3943763302        2.4050220633
 H          3.1262831423       -4.8190058749        0.4223643038
 H          3.4237361477       -3.8911070585       -1.8427546790
 H          4.0951783675       -1.5062908483       -2.1160091434
 H          4.1893754912        1.6771714126       -2.1032876405
 H          2.6370930632        3.4491593019       -2.3007217390
 H          0.4904993016        4.4216681444       -1.5647621902
 H         -0.8758384203        3.2669009443        0.1310374916
 H         -0.5000859243        1.6508984581        2.2201713506
 C          0.1868429485       -0.3316337805        1.9246308639
 C         -0.6880418350       -1.4274806313        2.4540833951
 C          0.0901311799       -1.6346545059        1.1913569686
 H          0.9412831668       -2.2993823410        1.2149699480
 H         -0.4390699863       -1.6355976608        0.2522001648
 H         -0.3731011483       -1.9460240499        3.3470598543
 H         -1.7577067163       -1.2917181757        2.3836345289
 H          1.1063493287       -0.1459375110        2.4724901123
