  62
        -98.94671655
 C         -2.2190030648       -0.3041523864       -0.0519624943
 C         -2.0489180588       -1.4120775571       -0.9224744962
 C         -1.3138052036       -2.5628426946       -0.3819784463
 C         -0.8769677595       -2.5255771246        0.8890930476
 C         -0.0738309203       -3.6020241611        1.5580357845
 C          1.4331196223       -3.3461724571        1.4182285589
 C          1.8840491873       -3.0367110013       -0.0094864636
 H          1.4822805050       -2.0699009428       -0.3234076361
 H          2.9714472850       -2.9288995478        0.0093713515
 C          1.4955832625       -4.0993060793       -1.0471943803
 H          2.3544344261       -4.2790675149       -1.6972773247
 H          1.2609194622       -5.0409908542       -0.5485717304
 C          0.3310914380       -3.6980834740       -1.9554588497
 H          0.3062612794       -4.3880227589       -2.8037004043
 H          0.5146612172       -2.6955969603       -2.3536453284
 C         -1.0596914542       -3.7185794531       -1.3065270275
 H         -1.8020919556       -3.6351302960       -2.1058164503
 H         -1.2132333304       -4.6700782844       -0.7926208364
 H          1.9652365533       -4.2268419508        1.7826789644
 H          1.7046057516       -2.4968548632        2.0491536603
 H         -0.3321618416       -4.5641661649        1.1201156091
 H         -0.3326470704       -3.6142307066        2.6182196797
 O         -1.0898078663       -1.4661802429        1.7070034330
 C         -1.7033449278       -0.3057185702        1.2451659781
 O         -1.7190613481        0.6130057998        2.0840084410
 O         -2.4859911643       -1.4311979959       -2.1048595183
 C         -2.8148681535        0.9641615585       -0.6427700698
 C         -1.8032002203        2.0701337948       -0.4719140889
 C         -2.0096650724        3.2117302071        0.2894861001
 C         -0.9929420426        4.1398682228        0.4380181595
 C          0.2442944574        3.9417022391       -0.1475390226
 C          0.4608220404        2.8017957451       -0.9151948532
 C         -0.5698012958        1.8925731298       -1.0885375059
 H         -0.3999144538        1.0101634412       -1.6891811335
 N          1.7042743826        2.5693008426       -1.5317759295
 S          2.4698318414        1.0871280423       -1.4229926834
 O          3.7450566024        1.2919045144       -2.0737996646
 O          1.6311367798        0.0523262174       -1.9699709230
 C          2.7345817903        0.8087983710        0.3173337676
 C          3.9987391430        0.9634601887        0.8515404444
 C          4.1787313093        0.7687969054        2.2117006914
 C          3.0963279757        0.4368332653        3.0131577222
 C          1.8319142546        0.2923234661        2.4627907516
 C          1.6497091459        0.4762280104        1.1019487200
 H          0.6772173610        0.3678421608        0.6485995497
 H          0.9756082658        0.0456718314        3.0717023321
 H          3.2358270131        0.2890260856        4.0724771247
 H          5.1604050840        0.8789600838        2.6436225848
 H          4.8100901256        1.2225241333        0.1907604439
 H          2.3766332266        3.3109090872       -1.3964887332
 H          1.0389815067        4.6596692341       -0.0124506677
 H         -1.1611185303        5.0231017003        1.0352139662
 H         -2.9553878628        3.3607297587        0.7839474675
 H         -2.8877300878        0.7432673104       -1.7214249272
 C         -4.2187704297        1.3250933473       -0.1895674675
 C         -5.1929856615        0.2551651650        0.2024875701
 C         -4.6874766120        1.2212626756        1.2294599872
 H         -5.3679614468        1.9776822336        1.5930968418
 H         -3.9854820893        0.8725097694        1.9686957229
 H         -6.2161522167        0.3404774485       -0.1316153510
 H         -4.8261748692       -0.7609120812        0.2340207328
 H         -4.6218930297        2.1494272160       -0.7709573911
