  62
        -98.93887871
 C         -1.8847232818        0.8211657394        0.5642129726
 C         -2.6493514052        0.8309145646       -0.6328376587
 C         -3.7031761353       -0.1801419130       -0.7499634388
 C         -3.8723365409       -1.0748901220        0.2398039576
 C         -4.8725171168       -2.1992585205        0.2577797353
 C         -6.2739311350       -1.7829255530        0.7250101022
 C         -7.0690896916       -0.9413700498       -0.2740457642
 H         -7.0764876327       -1.4415986562       -1.2429537392
 H         -8.0999733119       -0.9089080836        0.0840299595
 C         -6.5578142782        0.4967619712       -0.4380923915
 H         -7.4021691794        1.1890405519       -0.4071900020
 H         -5.9058727912        0.7488270651        0.4014553561
 C         -5.8051976326        0.7574587710       -1.7429127690
 H         -6.4849946556        0.6345541418       -2.5888989252
 H         -5.4578655722        1.7936073112       -1.7369625748
 C         -4.5862760640       -0.1485884480       -1.9606820634
 H         -3.9988798149        0.2571275811       -2.7880124157
 H         -4.9084767043       -1.1566817929       -2.2214865831
 H         -6.8353424401       -2.6985595204        0.9250194122
 H         -6.1796657851       -1.2387453917        1.6676076061
 H         -4.9360102719       -2.6473381727       -0.7344748134
 H         -4.4851122390       -2.9475961840        0.9527952872
 O         -3.1124160330       -1.0655264577        1.3644580812
 C         -2.1108130815       -0.1159503229        1.5725538677
 O         -1.5480916008       -0.2371224786        2.6747560955
 O         -2.4521721647        1.6588161958       -1.5621033024
 C         -0.7816327935        1.8649450425        0.6246942946
 C          0.3119109323        1.4934702148       -0.3469791846
 C          0.8588016380        2.4478741037       -1.1977511950
 C          1.8494579586        2.1069018652       -2.1004645134
 C          2.3287031287        0.8105282130       -2.1544473785
 C          1.7917480897       -0.1503458091       -1.3061624617
 C          0.7829386735        0.1897351340       -0.4164137832
 H          0.3663659276       -0.5731648125        0.2258415487
 N          2.2708133454       -1.4799943101       -1.3170889172
 S          3.1559512348       -1.9409032201        0.0296507456
 O          3.6150220085       -3.2833597692       -0.2485447806
 O          2.3627417044       -1.7542053934        1.2153561249
 C          4.5443107664       -0.8185827346        0.0285595799
 C          4.3745613552        0.4519404561        0.5422444485
 C          5.4270041436        1.3505877804        0.4657820116
 C          6.6228684038        0.9666455966       -0.1215467991
 C          6.7781447256       -0.3134958401       -0.6316775875
 C          5.7281233375       -1.2151074007       -0.5626497322
 H          5.8035932040       -2.2211108338       -0.9428979743
 H          7.7102983803       -0.6106786498       -1.0844718028
 H          7.4386237337        1.6697129670       -0.1799673314
 H          5.3054291821        2.3450229764        0.8638181711
 H          3.4335098986        0.7139391908        0.9980821539
 H          2.7979950762       -1.7090589550       -2.1492855216
 H          3.1048279905        0.5378360505       -2.8538544615
 H          2.2550158648        2.8557250057       -2.7630044545
 H          0.4831252174        3.4596094059       -1.1618362068
 H         -1.2365510515        2.7968734390        0.2483839206
 C         -0.2437350892        2.1631883877        2.0138909147
 C          0.9293528150        1.4517822631        2.6100758061
 C          1.0635614905        2.8812147728        2.1838673621
 H          1.1373865199        3.6387544893        2.9492227384
 H          1.6392665126        3.0897992496        1.2944976949
 H          0.8846549966        1.2202749798        3.6634312350
 H          1.4041573720        0.6724907170        2.0333353239
 H         -1.0395449541        2.4239498318        2.7036321061
