  62
        -98.94385728
 C         -1.7928730422       -0.5435299037       -0.3594581032
 C         -3.0449651536       -1.1588370842       -0.5962489560
 C         -4.1434308944       -0.7430950629        0.2859068580
 C         -3.9024167515        0.1581640490        1.2558874932
 C         -4.9398964771        0.7098162462        2.1894354933
 C         -5.5760635351        1.9862346164        1.6212585650
 C         -6.0438218784        1.8511529898        0.1721706370
 H         -6.5023382223        2.8009596547       -0.1114276189
 H         -5.1732043445        1.7094189889       -0.4721855397
 C         -7.0419953490        0.7100657222       -0.0686310466
 H         -7.4839969345        0.3979326743        0.8783403334
 H         -7.8536837123        1.0814747106       -0.6978060840
 C         -6.4513423767       -0.5098058738       -0.7782109713
 H         -5.9281079626       -0.1895097692       -1.6827445517
 H         -7.2772427562       -1.1550440455       -1.0896153500
 C         -5.4910816160       -1.3671128163        0.0560058838
 H         -5.9624565716       -1.6289218361        1.0056357727
 H         -5.3027761040       -2.2907409914       -0.4995043665
 H         -6.4216601522        2.2613338570        2.2543130551
 H         -4.8393869918        2.7913989215        1.6697534937
 H         -5.7053631597       -0.0444829756        2.3613051800
 H         -4.4572123281        0.9467174932        3.1391737757
 O         -2.6813659109        0.7107894929        1.4675631590
 C         -1.5976732333        0.3846139459        0.6637578648
 O         -0.5435098281        0.9740451874        0.9607671635
 H          2.0700341788       -0.6055968768       -1.6819194271
 C          1.8528119208       -1.2098828979       -0.8144329470
 C          0.5355403702       -1.4575823141       -0.4549437392
 C          0.2964757359       -2.2555409400        0.6600686085
 C          1.3411542370       -2.7611561553        1.4106566030
 C          2.6532045440       -2.4968514451        1.0582901345
 C          2.9045023579       -1.7229295467       -0.0648349072
 N          4.2460809204       -1.4569145824       -0.4232696752
 S          5.0657534754       -0.3674789338        0.5533991375
 O          6.4094509752       -0.2962478153        0.0261261007
 O          4.9337779202       -0.7852356558        1.9245936524
 C          4.2283727972        1.1827347544        0.2766449531
 C          4.8024097850        2.1188407976       -0.5618444117
 C          4.1045733257        3.2815929242       -0.8446281540
 C          2.8416531264        3.4775572084       -0.3046507178
 C          2.2765890017        2.5262085992        0.5306625629
 C          2.9771303435        1.3681558540        0.8296133379
 H          2.5536523054        0.6170011182        1.4765343841
 H          1.2842429126        2.6493690124        0.9346582252
 H          2.2915668021        4.3763199966       -0.5367062317
 H          4.5408976692        4.0265215964       -1.4907666442
 H          5.7814091835        1.9194688289       -0.9672286837
 H          4.3499016860       -1.1686300564       -1.3870992408
 H          3.4802904749       -2.8642089220        1.6431205262
 H          1.1325288003       -3.3680695165        2.2789718751
 H         -0.7258575027       -2.4680306923        0.9419290968
 C         -0.6211579833       -0.9050302385       -1.2513709693
 H         -0.9937851799       -1.7046462303       -1.9100716882
 C         -0.2326398602        0.2875085312       -2.1038855037
 C          0.2751804753        0.0971785847       -3.5014886196
 C         -1.0972524426        0.6528143022       -3.2717636956
 H         -1.2748912679        1.6976608145       -3.4770338656
 H         -1.9470016260        0.0173639680       -3.4753800323
 H          1.0407477412        0.7652153497       -3.8673968653
 H          0.3530735704       -0.9130408901       -3.8747538166
 H          0.1822540360        1.0980369932       -1.5145078436
 O         -3.2327909784       -2.0176536218       -1.5004869711
