  62
        -98.94368499
 C          1.1291931325        1.4890463976        0.2189582643
 C          1.5954908008        0.4573798174        1.0735815401
 C          2.4667866203       -0.5572079526        0.4673229119
 C          2.7361448288       -0.4829845377       -0.8484983677
 C          3.6175901990       -1.4385495969       -1.5985515193
 C          5.0725301760       -0.9508328163       -1.6288873327
 C          5.6134464836       -0.5461769993       -0.2575108253
 H          6.6560840077       -0.2509526944       -0.3933229319
 H          5.0719009081        0.3361993755        0.0910918807
 C          5.5270053420       -1.6479583775        0.8078075218
 H          5.3912481981       -2.6173438267        0.3270724526
 H          6.4740849826       -1.6845006257        1.3501581935
 C          4.4256427212       -1.4389216877        1.8485983344
 H          4.5018670513       -0.4305036335        2.2627980530
 H          4.5955378262       -2.1433514978        2.6670411751
 C          2.9875749907       -1.6503639392        1.3577887055
 H          2.9029651018       -2.6213504765        0.8650078189
 H          2.3383799301       -1.6529906455        2.2378233479
 H          5.6936596449       -1.7440524868       -2.0490312148
 H          5.1330219228       -0.0847300238       -2.2921298288
 H          3.5604177938       -2.4192450619       -1.1295943181
 H          3.2433177072       -1.5150427429       -2.6212772429
 O          2.2650270038        0.5092607259       -1.6417258258
 C          1.4473225344        1.5184320745       -1.1409834281
 O          1.1088037401        2.3524629201       -1.9993570106
 H         -1.0937090140        1.1466772606       -1.1199024039
 C         -1.7127887034        1.2871637561       -0.2467461279
 C         -1.2204412365        1.9730510066        0.8543953318
 C         -2.0474943091        2.1392287587        1.9595765855
 C         -3.3369857106        1.6377692901        1.9563940367
 C         -3.8135151171        0.9306591024        0.8669608946
 C         -2.9897853797        0.7463737577       -0.2368601331
 N         -3.4119149321       -0.0139332500       -1.3471641978
 S         -2.4658334474       -1.3471111104       -1.7276071058
 O         -1.2061013805       -0.9305417734       -2.2859383707
 O         -3.3063621322       -2.1626583404       -2.5777056058
 C         -2.2228499222       -2.1457245901       -0.1526092720
 C         -3.1944184370       -3.0095469476        0.3151188044
 C         -3.0589954629       -3.5444291408        1.5858328546
 C         -1.9717415488       -3.1916072829        2.3717688696
 C         -1.0062822675       -2.3223531239        1.8883362354
 C         -1.1285124868       -1.7972809942        0.6119897087
 H         -0.3900344334       -1.1221365240        0.2078354008
 H         -0.1644693995       -2.0262882255        2.4943345143
 H         -1.8735971391       -3.5953904316        3.3669991226
 H         -3.8043278749       -4.2257452618        1.9633499352
 H         -4.0244381750       -3.2536453773       -0.3281437659
 H         -4.3821764355       -0.2947009234       -1.3006175393
 H         -4.8106864462        0.5176209683        0.8706501043
 H         -3.9706622326        1.7800876244        2.8180518936
 H         -1.6676257819        2.6514465057        2.8310220356
 C          0.1924758589        2.5040050909        0.8507792152
 H          0.5130353072        2.5766721852        1.9029331541
 C          0.2915746425        3.8967705734        0.2476030898
 C         -0.7386933744        4.4586307516       -0.6805423216
 C         -0.6192270767        4.9944392018        0.7127683548
 H         -0.2043771876        5.9810485843        0.8525642386
 H         -1.3992662873        4.7374414491        1.4126780688
 H         -0.3925693611        5.0585808548       -1.5080619477
 H         -1.5902228581        3.8419195338       -0.9241481852
 H          1.3204594515        4.1733233586        0.0415331409
 O          1.2897130059        0.3884270475        2.2947475569
