  62
        -98.93354953
 C         -1.9549316053       -0.3532677008       -0.0910707232
 C         -3.0511380140       -1.0743556411        0.4484898197
 C         -4.2888930576       -0.3158931385        0.6703041679
 C         -4.3118041898        1.0038662356        0.4141909052
 C         -5.4654846015        1.9457592851        0.6374780425
 C         -6.7219918642        1.7019677115       -0.2205145676
 C         -7.7868335440        0.8257566888        0.4510835877
 H         -7.6617345837        0.8883576049        1.5327964129
 H         -8.7727979641        1.2373604569        0.2257943746
 C         -7.8084468988       -0.6448149018        0.0231121586
 H         -8.2929472415       -0.7251765056       -0.9527409716
 H         -8.4228204176       -1.1928307494        0.7407510209
 C         -6.4451169280       -1.3280212770       -0.0847835342
 H         -5.9391105982       -0.9939393393       -0.9939354026
 H         -6.6098004120       -2.4011765050       -0.2004461654
 C         -5.5044196099       -1.0787680160        1.1101474113
 H         -6.0245929923       -0.5465952136        1.9051866654
 H         -5.1476085585       -2.0306232129        1.5087256264
 H         -6.4301817556        1.2790970814       -1.1815626113
 H         -7.1625401701        2.6803098641       -0.4192987029
 H         -5.0729934718        2.9413544191        0.4200610241
 H         -5.7386982466        1.9195499126        1.6949327607
 O         -3.2237679262        1.6706344792       -0.0557569743
 C         -2.0265509685        1.0197010823       -0.3329315753
 O         -1.1408375120        1.7745748422       -0.7740091974
 O         -2.9945386284       -2.2981223480        0.7414389338
 C         -0.6697220364       -1.1254214033       -0.3348454675
 C          0.4987432841       -0.3955547440        0.2749218155
 C          0.6429487972       -0.3902871875        1.6592873088
 C          1.6880185923        0.2858985123        2.2598521166
 C          2.6128443823        0.9709930375        1.4919422759
 C          2.4770786454        0.9723290853        0.1102698633
 C          1.4332047575        0.2820694963       -0.4919343428
 H          1.3268657802        0.3100686560       -1.5650304406
 N          3.4157064418        1.6645660196       -0.6726418345
 S          5.0366433955        1.4386241344       -0.3348674196
 O          5.4224753309        2.2529720111        0.7906662151
 O          5.7270941889        1.7104146154       -1.5761391352
 C          5.1725221047       -0.2883457184        0.0936665086
 C          5.5296419669       -0.6582992196        1.3739111250
 C          5.5787530634       -2.0060657866        1.6930515265
 C          5.2673794988       -2.9550871952        0.7322500878
 C          4.9142455210       -2.5676338481       -0.5515718529
 C          4.8641401430       -1.2220615106       -0.8760819629
 H          4.6000437855       -0.8862112915       -1.8660208476
 H          4.6747419598       -3.3083230290       -1.2976384827
 H          5.3008777103       -4.0034523219        0.9835790515
 H          5.8552992801       -2.3103971687        2.6896308182
 H          5.7628374308        0.1117744487        2.0908912730
 H          3.2288651023        1.6347378524       -1.6635435500
 H          3.4257728691        1.5179618517        1.9413951143
 H          1.7831592150        0.2841865992        3.3350694132
 H         -0.0847603272       -0.9170529291        2.2612133218
 H         -0.8121715138       -2.0638995994        0.2253897693
 C         -0.4361369297       -1.5231798457       -1.7846641287
 C         -1.5884349131       -1.8889004652       -2.6703603371
 C         -0.7989516653       -0.6454635819       -2.9435355912
 H         -0.1429716697       -0.6361023423       -3.8023624098
 H         -1.2499311488        0.3112838874       -2.7317563891
 H         -1.4789218640       -2.7281713500       -3.3404706317
 H         -2.5828509280       -1.7825104355       -2.2618685596
 H          0.4634045574       -2.1216110937       -1.8941138986
