  62
        -98.94012321
 C          2.0347274796        0.6332271200        0.9809999999
 C          2.8676492897        1.1599214102       -0.0373109199
 C          4.2625656197        0.6866114101       -0.0301272899
 C          4.6645558696       -0.1917734501        0.9048603399
 C          6.0359889496       -0.7956468902        0.9859505799
 C          6.1105251496       -2.1129386900        0.2013643295
 C          5.5486499497       -2.0189756596       -1.2172693805
 H          5.6835759597       -2.9963773895       -1.6857266607
 H          4.4729195697       -1.8356737496       -1.1631113105
 C          6.2041081298       -0.9388464394       -2.0892194101
 H          6.4106419399       -1.3624432991       -3.0743956202
 H          7.1611324798       -0.6442304095       -1.6569954300
 C          5.3428897399        0.3059032707       -2.3108231599
 H          5.8010384200        0.8979688509       -3.1075361797
 H          4.3500220399        0.0064344709       -2.6555179900
 C          5.1747467898        1.2268858704       -1.0957070896
 H          6.1544789798        1.4680141602       -0.6784380095
 H          4.7112442799        2.1542179705       -1.4448855794
 H          5.5430121495       -2.8723033901        0.7445334893
 H          7.1534965496       -2.4326395800        0.1615898895
 H          6.7636752796       -0.0866815701        0.5958161601
 H          6.2624568395       -0.9946479105        2.0348708298
 O          3.8380730195       -0.6720737704        1.8693578697
 C          2.5120788395       -0.2820844703        1.9233251497
 O          1.8629793494       -0.8041260706        2.8531715395
 H         -1.5465040705       -0.4823424902        1.9179986793
 C         -1.3544930004       -0.5890789499        0.8587964293
 C         -0.2910349303        0.0928018502        0.2862734996
 C         -0.0494466002       -0.0681071794       -1.0746322405
 C         -0.8493633802       -0.9003417192       -1.8361411208
 C         -1.9089351303       -1.5803616893       -1.2609835910
 C         -2.1623520004       -1.4208716596        0.0943729590
 N         -3.2679683605       -2.0803342897        0.6695929787
 S         -4.7572616504       -1.6938177795       -0.0041766813
 O         -5.7337960605       -1.9951693497        1.0175502585
 O         -4.9086461003       -2.3904312892       -1.2557826915
 C         -4.6501704203        0.0640667806       -0.2841839208
 C         -4.3287592701        0.5393153009       -1.5395005107
 C         -4.1373568901        1.9011767009       -1.7102258203
 C         -4.2688878801        2.7590798506       -0.6297524701
 C         -4.6034006203        2.2671673303        0.6227857598
 C         -4.7891388703        0.9060708603        0.8015761094
 H         -5.0499294504        0.4854790200        1.7598833992
 H         -4.7099748403        2.9386467301        1.4596678499
 H         -4.1068778301        3.8166816507       -0.7626038398
 H         -3.8786464000        2.2873151512       -2.6829799602
 H         -4.2380700701       -0.1596845189       -2.3543359409
 H         -3.3095646205       -1.9877472500        1.6747272687
 H         -2.5474547502       -2.2276271191       -1.8403569013
 H         -0.6479256901       -1.0197387089       -2.8899381008
 H          0.7672492798        0.4734330907       -1.5269042602
 C          0.5670147796        1.0003914700        1.1289163099
 H          0.3293241295        0.7933511697        2.1841886098
 C          0.2847736397        2.4774445901        0.8821518603
 C         -0.5800111302        2.9830149704       -0.2301572097
 C         -1.0794985303        3.0260286300        1.1802240403
 H         -1.1567263103        3.9799219599        1.6790655305
 H         -1.8467658403        2.3174733700        1.4553138500
 H         -1.0238801301        2.2663169606       -0.9030186499
 H         -0.2851706601        3.9049089105       -0.7071594294
 H          1.1290468497        3.1016769599        1.1540790005
 O          2.4895019899        1.9789158905       -0.9124610397
