  62
        -98.93785200
 C         -2.1736703346       -0.9692592132       -0.3333895654
 C         -2.8676674751       -0.4897928319        0.8080493623
 C         -3.3474552160        0.8960219048        0.7522954647
 C         -3.0787191969        1.6373125750       -0.3375100966
 C         -3.5349063714        3.0510464403       -0.5500806868
 C         -4.8918129288        3.0979892306       -1.2662989119
 C         -5.9488960535        2.1861775217       -0.6435653191
 H         -5.6434179273        1.1457243114       -0.7754086076
 H         -6.8725073658        2.3250202085       -1.2094059943
 C         -6.2160010730        2.4493675279        0.8449653109
 H         -7.2951184088        2.4558154306        1.0115357543
 H         -5.8395036860        3.4350139686        1.1206552169
 C         -5.6262171476        1.4004407044        1.7896252567
 H         -5.9239267210        0.4018308408        1.4603825091
 H         -6.0537734932        1.5585848003        2.7832007622
 C         -4.0998691285        1.4213351460        1.9425007672
 H         -3.8386660535        0.7615069950        2.7751726915
 H         -3.7673563639        2.4317667346        2.1904154534
 H         -4.7449426166        2.7936919345       -2.3051433906
 H         -5.2485977950        4.1294509435       -1.2610235265
 H         -2.7900794646        3.5625155252       -1.1623343490
 H         -3.6018726555        3.5518999981        0.4139255509
 O         -2.3882848328        1.1574018500       -1.4006092804
 C         -1.9111568120       -0.1477378057       -1.4299007084
 O         -1.2875279176       -0.4225193789       -2.4729850061
 O         -3.0799515312       -1.1992476096        1.8281866242
 C         -1.6735771009       -2.4030261907       -0.2667648624
 C         -0.2798272240       -2.4277026659        0.3076925595
 C          0.0379668405       -3.2118752093        1.4094976239
 C          1.3095019250       -3.1776191606        1.9571493481
 C          2.2876447516       -2.3598835657        1.4200142689
 C          1.9787442846       -1.5752739901        0.3175991797
 C          0.7084286942       -1.6161041101       -0.2335112698
 H          0.4763664123       -0.9969949246       -1.0885349001
 N          2.9687064297       -0.7113744494       -0.2220407444
 S          3.1807621260        0.6971642258        0.6956249424
 O          3.3289422105        0.3217308878        2.0781267582
 O          2.1272271497        1.6461234615        0.3953265335
 C          4.7348108071        1.2905397257        0.0570645893
 C          5.9031252128        0.7372792562        0.5444066611
 C          7.1145006096        1.1697156178        0.0293460257
 C          7.1370629044        2.1409167305       -0.9607036445
 C          5.9558703740        2.6864024710       -1.4400842640
 C          4.7407444398        2.2574008177       -0.9292605336
 H          3.7984824944        2.6600037437       -1.2657675744
 H          5.9754883641        3.4427915482       -2.2082376538
 H          8.0808679258        2.4769983581       -1.3600840491
 H          8.0352119184        0.7494142027        0.4005812876
 H          5.8363784903       -0.0077915776        1.3195560372
 H          2.7060247284       -0.4127575534       -1.1542004524
 H          3.2728408688       -2.3039060438        1.8518817531
 H          1.5382520574       -3.7884151411        2.8171620787
 H         -0.7266323567       -3.8336196636        1.8520505232
 H         -2.3370924553       -2.8974123192        0.4603888174
 C         -1.7990133015       -3.1543915880       -1.5843821006
 C         -0.6256900066       -3.6079288295       -2.3954212276
 C         -1.4465041480       -4.6114397818       -1.6463852731
 H         -2.0896124440       -5.2769845019       -2.2016294635
 H         -1.0086445589       -5.0512500308       -0.7629311393
 H         -0.7138733158       -3.5569620654       -3.4698640902
 H          0.3651604058       -3.3869788680       -2.0309650355
 H         -2.6734371494       -2.8411263169       -2.1455380282
