  62
        -98.93959881
 C         -2.5779167707       -0.7551521894        0.6523948397
 C         -3.0715879806       -0.2020916492       -0.5542103402
 C         -3.6044377803        1.1651413409       -0.4592497302
 C         -3.5914245801        1.7987680108        0.7275368199
 C         -4.0508669297        3.2097816309        0.9519069500
 C         -2.8932731495        4.2046967407        0.7870536599
 C         -2.0801791196        4.0015294705       -0.4916232001
 H         -1.3110590495        4.7765402503       -0.5143514701
 H         -1.5651350299        3.0392488204       -0.4395892902
 C         -2.9051979797        4.0625313008       -1.7847039001
 H         -3.8610475196        4.5509356410       -1.5918212800
 H         -2.3693110596        4.6745271807       -2.5131149201
 C         -3.1546715801        2.7041902209       -2.4429334401
 H         -2.2076854402        2.1693606506       -2.5536880002
 H         -3.5495441301        2.8803804610       -3.4470181501
 C         -4.1444849202        1.7836280211       -1.7178561701
 H         -5.0710335401        2.3246876913       -1.5155860900
 H         -4.3717687405        0.9487830912       -2.3871792101
 H         -3.3033086793        5.2160713608        0.8024054500
 H         -2.2207871795        4.0976018605        1.6413263699
 H         -4.8471394297        3.4423877412        0.2476739100
 H         -4.4424149897        3.2864932110        1.9676368800
 O         -3.1020967401        1.2362257107        1.8629312898
 C         -2.5712428505       -0.0429396795        1.8510588297
 O         -2.1260971905       -0.4255230996        2.9534364297
 H          0.1204368594       -0.5799473600        0.8381367395
 C          0.2414921491       -1.2819876300        0.0208364695
 C         -0.7739034811       -2.1981644298       -0.2293009305
 C         -0.6056185614       -3.1041970798       -1.2664728605
 C          0.5419412486       -3.0738056700       -2.0413201406
 C          1.5426511288       -2.1516229103       -1.7986912206
 C          1.3914476591       -1.2496608203       -0.7523637806
 N          2.4028693594       -0.2959814605       -0.4925731706
 S          3.9410869492       -0.9213909309       -0.1630509507
 O          4.4720107990       -1.4954945710       -1.3723340508
 O          3.8849442791       -1.8015276009        0.9848212893
 C          4.8301162796        0.5677543789        0.2421085993
 C          5.2691561897        1.3764590088       -0.7887223607
 C          5.9430972900        2.5470732686       -0.4796758507
 C          6.1647003802        2.8876610485        0.8466310893
 C          5.7181906400        2.0654109586        1.8700493993
 C          5.0418944998        0.8937611388        1.5678229693
 H          4.6840890596        0.2206493788        2.3307526893
 H          5.8938282902        2.3309697285        2.9001621593
 H          6.6912751104        3.7983313184        1.0848158593
 H          6.2937966801        3.1885524386       -1.2719422207
 H          5.0819781896        1.0671706489       -1.8035932107
 H          2.1371467195        0.3079708195        0.2754795995
 H          2.4419226788       -2.1284020805       -2.3917387407
 H          0.6573343084       -3.7793106400       -2.8503600306
 H         -1.3737401315       -3.8305100596       -1.4744381805
 C         -1.9920007010       -2.1563842895        0.6626358496
 H         -1.6565628910       -2.3375049497        1.6945935696
 C         -3.0493755313       -3.1800009393        0.3093955996
 C         -2.9132376416       -4.5930655593        0.7884096396
 C         -3.9480936713       -3.6932215891        1.3924529697
 H         -4.9872817614       -3.8704891689        1.1596828497
 H         -3.7827627812       -3.3202149992        2.3930571497
 H         -2.0451302916       -4.8379979096        1.3818808895
 H         -3.2443920718       -5.3914730292        0.1417859195
 H         -3.4896626513       -3.0081282491       -0.6655694203
 O         -3.0705692308       -0.8136597592       -1.6534611903
