  62
        -98.93582981
 C          2.4989875299        1.0171038000        0.5898382812
 C          2.6197743297       -0.2733518402        1.1672958010
 C          3.9073668298       -0.9518359901        0.9872517511
 C          4.9011705299       -0.3265868000        0.3308547816
 C          6.2834921700       -0.8687435999        0.0870740318
 C          6.3862629903       -1.7861759496       -1.1389636484
 C          5.7488863903       -3.1661728397       -0.9729002589
 H          6.0813882905       -3.7764264395       -1.8148941189
 H          6.1270953800       -3.6328325399       -0.0628942489
 C          4.2138473803       -3.1558838697       -0.9478852493
 H          3.8473750104       -2.2079112296       -1.3488991692
 H          3.8328177804       -3.9460027195       -1.5988418596
 C          3.5999265099       -3.3751596400        0.4351609805
 H          2.5122788999       -3.3103829200        0.3420887902
 H          3.8478216098       -4.3773184201        0.7922722403
 C          4.0446116896       -2.3560856903        1.4926096908
 H          3.3940150494       -2.4603368605        2.3645661006
 H          5.0726434495       -2.5528323703        1.7966099711
 H          5.9359229506       -1.2774937094       -1.9943097884
 H          7.4482461304       -1.9237163396       -1.3546419881
 H          6.9315243301       -0.0046312899       -0.0740051578
 H          6.6285722898       -1.4025425902        0.9729416718
 O          4.7583594501        0.9206386101       -0.1851977682
 C          3.5545619401        1.6141173401       -0.1019713283
 O          3.5822048703        2.7200935203       -0.6701152481
 O          1.6915430295       -0.8286673403        1.8168641706
 C          1.1595177299        1.7105205900        0.7565024810
 C          0.2282064802        1.3873800402       -0.3849950493
 C          0.6529196705        1.4605542705       -1.7079776992
 C         -0.2191585392        1.1641445408       -2.7392745295
 C         -1.5250881993        0.7926557208       -2.4733962499
 C         -1.9636736196        0.7263712904       -1.1555158901
 C         -1.0834923399        1.0192222502       -0.1223466197
 H         -1.4272933602        0.9388233699        0.8978527401
 N         -3.3018429397        0.4077299704       -0.8705048105
 S         -3.6822545901       -0.4627252399        0.5252368392
 O         -3.5864617904        0.4186650298        1.6612754594
 O         -2.9060719401       -1.6809353800        0.5824535691
 C         -5.3956463200       -0.8315065199        0.1984563886
 C         -6.3282196401        0.1748270201        0.3667500786
 C         -7.6599833200       -0.0940602498        0.0946125882
 C         -8.0354235299       -1.3573862797       -0.3382437822
 C         -7.0887012998       -2.3574409497       -0.5004715422
 C         -5.7543686299       -2.0947553197       -0.2314469618
 H         -4.9846078899       -2.8426284697       -0.3352994217
 H         -7.3839175398       -3.3393373196       -0.8336240525
 H         -9.0729699898       -1.5646236196       -0.5475845326
 H         -8.3993206700        0.6800519902        0.2221768982
 H         -5.9912874101        1.1373516000        0.7144620689
 H         -3.7898651595        0.0327273506       -1.6730357707
 H         -2.2022629691        0.5598068510       -3.2810034202
 H          0.1229964811        1.2202570110       -3.7617920794
 H          1.6695534706        1.7581519006       -1.9169746088
 H          0.7226251096        1.2635312497        1.6650555908
 C          1.2792239798        3.2085571599        1.0028117214
 C          0.8655672801        4.2437810301        0.0048450116
 C          0.0458055497        4.0291855398        1.2393900813
 H          0.0667316895        4.7799417097        2.0147954115
 H         -0.9076952702        3.5334803999        1.1301370109
 H          1.4725020201        5.1326594501       -0.0715229081
 H          0.4652028003        3.9089765604       -0.9388920986
 H          2.1461629796        3.4478897697        1.6103771517
