  62
        -98.93356454
 C          1.7592010690        0.3655207118        0.7897215000
 C          2.7658588383        1.0781062003        0.0967699427
 C          4.1550146223        0.5893521707        0.2501431976
 C          4.3880600389       -0.4942436688        1.0119094875
 C          5.6965650811       -1.1903388678        1.2790699991
 C          6.1721858206       -2.0398136205        0.0902067037
 C          6.0559847802       -1.3591712118       -1.2708528552
 H          5.0139423227       -1.0857846180       -1.4457617001
 H          6.3307596299       -2.0931808721       -2.0330178875
 C          6.9438626669       -0.1317085271       -1.4616249817
 H          6.8388400400        0.1847593960       -2.5025065858
 H          7.9868350479       -0.4160610426       -1.3054238450
 C          6.6262264684        1.0694250798       -0.5678225348
 H          7.1478924350        1.9341036612       -0.9884222425
 H          7.0210320608        0.9302471902        0.4350238100
 C          5.1482412978        1.4406006552       -0.5045996367
 H          4.7576490586        1.5314836844       -1.5243928395
 H          5.0591084471        2.4449495267       -0.0734412740
 H          5.5667730247       -2.9492620854        0.0612530571
 H          7.2089859497       -2.3307811535        0.2678891860
 H          6.4543507721       -0.4668092680        1.5647086490
 H          5.5292539665       -1.8507639778        2.1329572433
 O          3.3819458063       -1.1597951931        1.6508453236
 C          2.0663976867       -0.7552469983        1.5644369253
 O          1.2690781692       -1.4571781516        2.2207827282
 H         -1.9044386874       -0.8389161357        0.7676857262
 C         -1.5298646745       -0.6665395005       -0.2302698170
 C         -0.4001653784        0.1152677386       -0.4237505169
 C          0.0862322267        0.2852738454       -1.7172979378
 C         -0.5453818707       -0.3194725456       -2.7876340449
 C         -1.6749485431       -1.0952303110       -2.5929466399
 C         -2.1662590725       -1.2748104212       -1.3051869079
 N         -3.2983250937       -2.0680051829       -1.0845301458
 S         -4.3525179842       -1.7621665557        0.1665103104
 O         -3.7936682476       -2.1932683188        1.4231160728
 O         -5.5782696508       -2.4188648592       -0.2358112895
 C         -4.6030427803        0.0051714851        0.1870409165
 C         -4.6061331836        0.6655875453        1.3987941582
 C         -4.8401921936        2.0319105815        1.4201414792
 C         -5.0595955752        2.7129039323        0.2329819666
 C         -5.0520529356        2.0358844941       -0.9767586413
 C         -4.8275365625        0.6689224892       -1.0032124999
 H         -4.8256022287        0.1190356523       -1.9299487336
 H         -5.2194416560        2.5685403791       -1.8988227643
 H         -5.2331055122        3.7769344413        0.2513364301
 H         -4.8429204054        2.5584277412        2.3610167222
 H         -4.4161424486        0.1000669651        2.2973743353
 H         -3.7629007652       -2.4088136974       -1.9123572621
 H         -2.1660355676       -1.5703606941       -3.4284471912
 H         -0.1573890114       -0.1826985485       -3.7856839483
 H          0.9626790419        0.8962757678       -1.8690711426
 C          0.2890562323        0.7525880155        0.7551309961
 H         -0.1432358210        0.3076440857        1.6658337835
 C          0.0700664497        2.2581653805        0.8367302041
 C         -0.5431209481        3.0703213285       -0.2607777747
 C         -1.3232422410        2.7931178887        0.9862332246
 H         -1.4971214025        3.5984027399        1.6833598019
 H         -2.1323672900        2.0808329126        0.9214409316
 H         -0.8376231785        2.5669133256       -1.1674520201
 H         -0.1513580405        4.0629705621       -0.4207491520
 H          0.8434421277        2.7471784775        1.4197203179
 O          2.5467342421        2.0814321718       -0.6288795364
