  62
        -98.93656015
 C          1.3968485058        1.0673913722       -0.0939743303
 C          2.7417521255        1.5083560958       -0.1035482080
 C          3.7698974884        0.5532043595        0.3548248207
 C          3.3752494770       -0.6544857693        0.7983728387
 C          4.2299969401       -1.8007048585        1.2702610536
 C          4.9100635181       -2.5482972522        0.1121227575
 C          5.5272671988       -1.6512277096       -0.9575632770
 H          5.8799846808       -2.2947370030       -1.7679482979
 H          4.7532588162       -1.0034830690       -1.3733318885
 C          6.7057624777       -0.7991144112       -0.4924335613
 H          7.1022158649       -0.2860128233       -1.3725088877
 H          7.4917972275       -1.4534801734       -0.1087888093
 C          6.3908553304        0.2567835849        0.5695561513
 H          7.2467698250        0.9365887875        0.6157814416
 H          6.3008359584       -0.1917631587        1.5552835637
 C          5.1676739840        1.1175515105        0.2693884797
 H          5.1767904946        1.9831127069        0.9430991846
 H          5.2642705315        1.5390628567       -0.7379377740
 H          4.1582492823       -3.1749933079       -0.3736172366
 H          5.6777511896       -3.2032368905        0.5276527041
 H          3.5643774474       -2.4941879073        1.7886608744
 H          4.9647940597       -1.4484704375        1.9880873563
 O          2.0626041381       -1.0168728280        0.8417829181
 C          1.0410354833       -0.1845722617        0.4104404674
 O         -0.0946735692       -0.6726983166        0.5385626726
 O          3.0824903942        2.6611976314       -0.4848984625
 C          0.3324766691        2.0279946848       -0.5927204228
 C         -0.8372878441        2.0432649879        0.3565498529
 C         -0.6619035807        2.5797984233        1.6294305996
 C         -1.6978344906        2.5834399723        2.5429053806
 C         -2.9282847269        2.0461690211        2.2082853012
 C         -3.1140598911        1.5109945698        0.9392134650
 C         -2.0750301481        1.5196558844        0.0193573591
 H         -2.2426421125        1.0929627783       -0.9545336041
 N         -4.3572816176        0.9808329684        0.5712950980
 S         -4.5092947023       -0.2464042378       -0.5455329759
 O         -4.2469169790        0.2542134639       -1.8725770015
 O         -5.8521793260       -0.7447926021       -0.3248437718
 C         -3.3393487680       -1.5205441645       -0.1165666877
 C         -2.5364421397       -2.0570346314       -1.0995423535
 C         -1.6676012451       -3.0835024994       -0.7702768501
 C         -1.6160880041       -3.5517635844        0.5316174958
 C         -2.4305072713       -3.0024866120        1.5085187150
 C         -3.3038793760       -1.9788924537        1.1841011960
 H         -3.9505105996       -1.5362393715        1.9246426655
 H         -2.3807889966       -3.3643129276        2.5232785134
 H         -0.9298867458       -4.3437450503        0.7884536772
 H         -1.0262485542       -3.5056734714       -1.5282455654
 H         -2.5984558402       -1.6561441299       -2.0987991205
 H         -5.0318305875        0.9001021771        1.3169652898
 H         -3.7380937780        2.0407229137        2.9218247286
 H         -1.5463551365        3.0009786526        3.5269741659
 H          0.3045298137        2.9859537161        1.8960172310
 H          0.8156235948        3.0188270013       -0.5596532549
 C         -0.0814931111        1.7928190757       -2.0375869712
 C          0.9022063673        1.2935841317       -3.0516838772
 C         -0.2331803287        0.4191532044       -2.6157315975
 H         -1.0463853286        0.2470915133       -3.3065319822
 H         -0.0217900968       -0.4204647844       -1.9717243264
 H          0.8773592017        1.7172950807       -4.0443991981
 H          1.8959165653        1.0504740965       -2.7048192737
 H         -0.7887859263        2.5418542281       -2.3821278073
