  62
        -98.94310873
 C         -2.0571685541       -1.3750741880        0.3353041216
 C         -2.0588324409       -0.2318482027        1.1774160069
 C         -3.0525826117        0.8009891718        0.8722165762
 C         -3.9050719696        0.6194625383       -0.1525607125
 C         -5.0058997784        1.5575706639       -0.5674362178
 C         -4.5441044215        2.6978896129       -1.4848516656
 C         -3.7131951753        3.7844759111       -0.8015503430
 H         -3.6443311128        4.6208436188       -1.5000458794
 H         -4.2421406971        4.1422059909        0.0823584511
 C         -2.2938594073        3.3452834893       -0.4145621940
 H         -2.0329027291        2.4347747527       -0.9588145012
 H         -1.5830195866        4.1161537577       -0.7189084474
 C         -2.0886347196        3.1011087345        1.0806287129
 H         -2.2111007809        4.0393314198        1.6261677979
 H         -1.0651321888        2.7491054403        1.2327023143
 C         -3.0384873637        2.0594480663        1.6859679667
 H         -2.6774227805        1.8053804682        2.6854890576
 H         -4.0448636126        2.4690643446        1.7712797049
 H         -3.9752687047        2.2703201901       -2.3137676426
 H         -5.4401621129        3.1629669648       -1.9023668837
 H         -5.7391023355        0.9557561899       -1.1088337779
 H         -5.4853032197        1.9735557260        0.3192529376
 O         -3.8697203232       -0.4854345203       -0.9403781162
 C         -2.9295754490       -1.4897250934       -0.7476074667
 O         -2.9985197601       -2.3985195625       -1.5975436474
 H          1.3840792436       -1.6399998675        1.5490538892
 C          1.3888980403       -1.7829390412        0.4769891321
 C          0.2278204051       -2.2010734920       -0.1568724235
 C          0.2390456889       -2.3541383986       -1.5391450922
 C          1.3920567627       -2.1009061411       -2.2600118758
 C          2.5529535101       -1.6955338071       -1.6236768069
 C          2.5486625853       -1.5287872816       -0.2449029316
 N          3.7235826007       -1.1348616837        0.4220929577
 S          4.5532711388        0.2348277115       -0.0574965324
 O          4.9962676197        0.0701784789       -1.4181636093
 O          5.5843741318        0.4161855899        0.9374270797
 C          3.3752554693        1.5695814928        0.0455381321
 C          3.3586527253        2.3536681368        1.1818817085
 C          2.4286658674        3.3756985913        1.2786973532
 C          1.5288005017        3.5881083211        0.2458458236
 C          1.5500885422        2.7841715312       -0.8834763297
 C          2.4818244447        1.7639723050       -0.9890789746
 H          2.5324596042        1.1264839174       -1.8567024898
 H          0.8436119771        2.9472940178       -1.6817049930
 H          0.8071643303        4.3861764208        0.3212285306
 H          2.4060845694        4.0008892547        2.1567881214
 H          4.0816271773        2.1585323278        1.9575803808
 H          3.6326103018       -1.1385295001        1.4280491201
 H          3.4564391620       -1.4951051480       -2.1765579866
 H          1.3895688675       -2.2243150312       -3.3327242799
 H         -0.6672455635       -2.6555264249       -2.0419612606
 C         -1.0229764820       -2.4421042223        0.6537226400
 H         -0.7676421483       -2.2842706385        1.7105314188
 C         -1.5242795339       -3.8623844137        0.4941133547
 C         -0.8127124756       -4.9642946892        1.2183222346
 C         -2.1819310168       -4.5407102336        1.6565709954
 H         -3.0151146359       -5.1993666912        1.4630853109
 H         -2.2731263185       -3.9822564730        2.5769555041
 H         -0.7019925866       -5.9171718606        0.7242192413
 H          0.0254271629       -4.6938799881        1.8429035812
 H         -1.9170834974       -4.0785131698       -0.4900356156
 O         -1.2683744861       -0.0904949674        2.1488575227
