  62
        -98.94207716
 C         -1.9560614271       -0.7828369854        0.5195939297
 C         -1.4634132009        0.3345533268        1.2299819188
 C         -1.9082498354        1.6694219949        0.7893730278
 C         -2.7454176257        1.7556622713       -0.2604465222
 C         -3.3291576799        2.9873293789       -0.9025267632
 C         -2.3224591924        3.7348464016       -1.7876899438
 C         -0.9526908631        3.9539206467       -1.1517610440
 H         -0.4950839399        2.9859819184       -0.9359525533
 H         -0.3167707448        4.4405950682       -1.8970622644
 C         -0.9527229560        4.8261727376        0.1023771453
 H          0.0930928934        5.0085874413        0.3630713252
 H         -1.4091882993        5.7903739859       -0.1334039754
 C         -1.6499589540        4.2406021662        1.3340087958
 H         -2.7281913844        4.3656482326        1.2791743358
 H         -1.3142386359        4.8169338580        2.2009754954
 C         -1.3070047991        2.7817341976        1.6139002469
 H         -1.5658197783        2.5495277275        2.6538402571
 H         -0.2195986987        2.6557992412        1.5481040970
 H         -2.7570711257        4.6977107399       -2.0644842545
 H         -2.1747393405        3.1539517314       -2.7017271633
 H         -4.1566203587        2.6470567856       -1.5296763929
 H         -3.7381392621        3.6490902381       -0.1446844237
 O         -3.1830558220        0.6504845893       -0.9293607314
 C         -2.7775928877       -0.6282362490       -0.5955183304
 O         -3.2248233147       -1.5177694711       -1.3457777897
 O         -0.6704608805        0.2291822402        2.2065808588
 C         -1.4531739524       -2.1700470135        0.8913722207
 C         -0.5193689410       -2.6009896912       -0.2131942690
 C         -0.7398031574       -3.6808078625       -1.0556788182
 C          0.1187122933       -3.9165769405       -2.1171309980
 C          1.1866403705       -3.0762106071       -2.3714484787
 C          1.4237797569       -1.9991934056       -1.5216272795
 C          0.5943435862       -1.7988559176       -0.4332367297
 H          0.7752690735       -0.9666025365        0.2268036097
 N          2.4942273939       -1.1245657222       -1.7438327903
 S          2.4655909986        0.4765934181       -1.2475997915
 O          1.1252444368        1.0028341537       -1.1544362318
 O          3.3482552663        1.1461006403       -2.1816531920
 C          3.2732548788        0.4197344120        0.3393386685
 C          4.6309909497        0.1584260466        0.3348004687
 C          5.3085676900        0.0862501198        1.5398672387
 C          4.6204811594        0.2761457884        2.7294170986
 C          3.2605459385        0.5406402038        2.7182113884
 C          2.5762836882        0.6144770806        1.5136901784
 H          1.5140468476        0.8073977570        1.4910304183
 H          2.7165703881        0.6861633427        3.6379298184
 H          5.1455122996        0.2186526909        3.6698969586
 H          6.3670377207       -0.1182509066        1.5496667288
 H          5.1273644401        0.0296179075       -0.6126096612
 H          2.9728312243       -1.2429376013       -2.6238174402
 H          1.8290714310       -3.2436451556       -3.2225880486
 H         -0.0630935839       -4.7550430316       -2.7726086774
 H         -1.5916312253       -4.3216363653       -0.8988066177
 H         -0.8630884929       -2.0326220208        1.8086680806
 C         -2.5819993592       -3.1356711770        1.1702370015
 C         -2.3135276250       -4.3767529455        1.9667279824
 C         -3.1092845787       -3.2583950677        2.5674075216
 H         -4.1712022783       -3.3952159012        2.7059633117
 H         -2.6446260407       -2.6513365156        3.3305264811
 H         -2.8295963519       -5.2850744475        1.6955671231
 H         -1.3065128745       -4.5311017519        2.3233855225
 H         -3.2993127390       -3.1916513201        0.3601939216
