  62
        -98.93909231
 C          1.8967088329       -0.2162420811        0.0146709714
 C          2.9436256887       -0.9967928377       -0.5269846001
 C          4.2613933562       -0.3482363133       -0.6398722801
 C          4.4049838250        0.9279905700       -0.2360613906
 C          5.6022937467        1.8548104421       -0.2747424565
 C          7.0089067612        1.3074607590       -0.5036782744
 C          7.5464260638        0.4300240610        0.6260548910
 H          8.5112187114        0.0246363421        0.3133766387
 H          7.7185733254        1.0589917850        1.5031913636
 C          6.6395748656       -0.7206845776        1.0552402869
 H          7.1451408251       -1.2620699600        1.8595756797
 H          5.7121990882       -0.3214284293        1.4712368083
 C          6.2987890595       -1.7288582425       -0.0405592340
 H          5.7919023894       -2.5721095568        0.4361241822
 H          7.2184156203       -2.1044642536       -0.4932952953
 C          5.3780658113       -1.2080941612       -1.1582740600
 H          5.9432821463       -0.6826926745       -1.9243454597
 H          4.9041618247       -2.0714425215       -1.6342552057
 H          7.0587512829        0.7797396884       -1.4514732095
 H          7.6688762383        2.1750458741       -0.5896556030
 H          5.3844937376        2.5874757434       -1.0598529273
 H          5.5818268249        2.4044244222        0.6716945968
 O          3.3591289152        1.6455793943        0.2706128802
 C          2.0924408193        1.1031593971        0.4172125079
 O          1.2552495838        1.8844381485        0.9068983602
 O          2.7836974418       -2.1858538430       -0.9131550819
 C          0.5188113912       -0.8376529640        0.1630902174
 C         -0.4821697279       -0.0343139798       -0.6282808235
 C         -0.2834147087        0.1013827468       -2.0010673975
 C         -1.1465181284        0.8567257727       -2.7691275068
 C         -2.2338657629        1.4856446070       -2.1868481036
 C         -2.4436752664        1.3553633416       -0.8199759087
 C         -1.5742941974        0.5917015867       -0.0503947547
 H         -1.7512075373        0.5271500066        1.0093964185
 N         -3.5254572820        2.0044596151       -0.2044442171
 S         -4.4760504117        1.2230524058        0.9243262075
 O         -5.6451203906        2.0645922362        1.0542703862
 O         -3.7317218614        0.9747981883        2.1317995463
 C         -4.9228693206       -0.3146771496        0.1394200412
 C         -4.1719418164       -1.4475404273        0.3782899901
 C         -4.4946225270       -2.6168484218       -0.2925863650
 C         -5.5551194949       -2.6331353663       -1.1850779404
 C         -6.3023354163       -1.4869153744       -1.4111918075
 C         -5.9823300877       -0.3140663006       -0.7473181479
 H         -6.5436689990        0.5957724026       -0.8855879085
 H         -7.1297891732       -1.5042116621       -2.1020673905
 H         -5.8016999506       -3.5455087032       -1.7048385031
 H         -3.9158522701       -3.5093580434       -0.1155922433
 H         -3.3579017190       -1.3984330382        1.0821166881
 H         -4.0948135464        2.5527791710       -0.8322079641
 H         -2.9054033880        2.0847519847       -2.7829010908
 H         -0.9752929187        0.9573977984       -3.8302691770
 H          0.5697533378       -0.3859852248       -2.4530634532
 H          0.6006989930       -1.8345467293       -0.2942901586
 C          0.1657129187       -1.0022846231        1.6253673063
 C         -0.7751134405       -2.0872644559        2.0532517049
 C          0.6863543231       -2.1952541252        2.3673780664
 H          1.0080957792       -2.0659920182        3.3899097427
 H          1.2781461420       -2.9063437440        1.8096050642
 H         -1.4619725819       -1.8834563858        2.8617156518
 H         -1.1696395789       -2.7347320489        1.2845635121
 H          0.1366459863       -0.0602036873        2.1620295389
