  62
        -98.93117437
 C          2.3716086948        0.6248844150       -0.0387550293
 C          3.4931303978        0.7627878632        0.8085324401
 C          4.7669741520        0.2051295036        0.3181079307
 C          4.7885063778       -0.4189986509       -0.8735990597
 C          5.9558860202       -1.0585229073       -1.5823314705
 C          6.8917508525       -1.9262035976       -0.7264967796
 C          8.2687855917       -1.2984915271       -0.5028965098
 H          8.9848439524       -2.0948772468       -0.2880935443
 H          8.5857943221       -0.8172125018       -1.4304075488
 C          8.3447436510       -0.2889739485        0.6412286619
 H          8.2760073517       -0.8174904548        1.5945945515
 H          9.3297849474        0.1819958176        0.6016070922
 C          7.2765402744        0.8061013402        0.6191901240
 H          7.1145661828        1.1617949410       -0.3976400441
 H          7.6545589563        1.6526041670        1.1964240802
 C          5.9410698632        0.3748890854        1.2435589211
 H          6.0768173044       -0.5485632377        1.8142329337
 H          5.6139503015        1.1278774103        1.9674907356
 H          6.4184113641       -2.1524356710        0.2277414142
 H          7.0350608673       -2.8742747786       -1.2475001823
 H          5.5082956088       -1.6643992185       -2.3734011710
 H          6.5308263212       -0.2733737623       -2.0796454607
 O          3.6763753103       -0.5348738553       -1.6556379666
 C          2.4501135049       -0.0204537841       -1.2716380067
 O          1.5335746442       -0.1992847298       -2.0953968374
 O          3.4358388941        1.3310324277        1.9336278829
 C          1.0369392634        1.1903096311        0.4069927317
 C         -0.0068505962        0.1023805735        0.4787082250
 C          0.3189403368       -1.1115315221        1.0779265710
 C         -0.6133548953       -2.1261633063        1.1755414942
 C         -1.8957550202       -1.9527744796        0.6855552997
 C         -2.2384334054       -0.7405645779        0.1043442161
 C         -1.2985277761        0.2795819275        0.0087302918
 H         -1.5810716311        1.2156156738       -0.4475598752
 N         -3.5400272444       -0.5556514424       -0.3928158997
 S         -4.8140937437       -1.1349533661        0.5546852738
 O         -4.5729505659       -0.8266800981        1.9462801447
 O         -5.0186786015       -2.5280625437        0.2453128178
 C         -6.1768552094       -0.1686857193       -0.0667251832
 C         -6.4933993400        1.0220123246        0.5600702491
 C         -7.5380663399        1.7845320708        0.0622237394
 C         -8.2429440239        1.3472427200       -1.0492796557
 C         -7.9136265663        0.1499725810       -1.6671924044
 C         -6.8705639375       -0.6179965937       -1.1742096053
 H         -6.5852057491       -1.5585456886       -1.6157176255
 H         -8.4659791626       -0.1876739317       -2.5292235267
 H         -9.0559965941        1.9423057367       -1.4342323417
 H         -7.7983205845        2.7141522712        0.5422842833
 H         -5.9257982991        1.3175950938        1.4279514630
 H         -3.7040382307        0.3935533350       -0.6989883056
 H         -2.6347627716       -2.7349544134        0.7556291049
 H         -0.3409177340       -3.0635956460        1.6376315489
 H          1.3192536875       -1.2515920909        1.4651989292
 H          1.2053155806        1.5644355053        1.4283557044
 C          0.6440937958        2.3547784579       -0.4787099155
 C         -0.1756309202        3.4840704286        0.0689185449
 C          1.2769830302        3.6908372166       -0.2347472291
 H          1.5471039591        4.2967976893       -1.0864446024
 H          1.9687289264        3.7662360680        0.5914600146
 H         -0.9024092975        3.9547444136       -0.5762251789
 H         -0.4726160823        3.4295265676        1.1054844372
 H          0.4870480902        2.0558866036       -1.5092906485
