  62
        -98.94392549
 C          1.7739270555        0.4487840993       -0.4125204747
 C          3.0075904192        1.0134174009       -0.8155629502
 C          4.1365077247        0.8042476917        0.0976376449
 C          3.9483614681        0.1308894418        1.2474002258
 C          4.9949020936       -0.1432283953        2.2931522797
 C          5.8628434851       -1.3744488989        1.9988799393
 C          6.8794854792       -1.1994890308        0.8699687679
 H          7.4705572800       -0.3010919891        1.0509081667
 H          7.5604197034       -2.0516961696        0.9175255267
 C          6.2629860636       -1.1387626046       -0.5346448286
 H          5.2438714842       -1.5307781875       -0.5027725464
 H          6.8319464037       -1.7816838733       -1.2100265076
 C          6.2361117398        0.2579187701       -1.1555486755
 H          5.7482465006        0.1900053503       -2.1312936729
 H          7.2583494808        0.6083747200       -1.3147471640
 C          5.4852964753        1.3050480083       -0.3225527421
 H          6.0763518317        1.5867356196        0.5487801545
 H          5.3325437642        2.1917164766       -0.9430630193
 H          5.2069791340       -2.2178258474        1.7711189732
 H          6.4075277961       -1.6152802947        2.9147425178
 H          4.4606535311       -0.3145135485        3.2302556712
 H          5.6329494493        0.7328829767        2.4129924206
 O          2.7411030859       -0.3775009217        1.6096929507
 C          1.6301195784       -0.2502723390        0.7864576170
 O          0.5998149772       -0.7862670070        1.2322634185
 O          3.1553001239        1.6651583821       -1.8847705952
 C          0.5720291742        0.6007790896       -1.3232880467
 C         -0.5692299253        1.3134656896       -0.6392340459
 C         -0.3189312609        2.2839228070        0.3259646754
 C         -1.3565335665        2.9299920212        0.9719257636
 C         -2.6721190549        2.6362998451        0.6587885649
 C         -2.9341046710        1.6921728899       -0.3226562526
 C         -1.8902703318        1.0381151142       -0.9650710430
 H         -2.1153219802        0.3014257261       -1.7212663739
 N         -4.2806178013        1.3930811664       -0.6378286431
 S         -5.0843373555        0.4454064109        0.4888472071
 O         -6.4245480091        0.2710233850       -0.0229161939
 O         -4.9640758325        1.0649276848        1.7825028918
 C         -4.2110519521       -1.1085283960        0.4402928044
 C         -2.9783082747       -1.1960967649        1.0553045148
 C         -2.2410353894       -2.3618503443        0.9176645303
 C         -2.7515422288       -3.4162708418        0.1761557309
 C         -3.9966620676       -3.3169936732       -0.4278453391
 C         -4.7308154306       -2.1487312316       -0.3058226537
 H         -5.6975537389       -2.0232511378       -0.7665016276
 H         -4.3901442913       -4.1417144915       -1.0003622540
 H         -2.1722764272       -4.3200827407        0.0676172650
 H         -1.2627159133       -2.4132182763        1.3690865232
 H         -2.5991863550       -0.3643752733        1.6267665145
 H         -4.3903786965        0.9710858511       -1.5503986810
 H         -3.4942083221        3.1117052604        1.1679837262
 H         -1.1387279102        3.6694379299        1.7279679946
 H          0.7058311394        2.5208462748        0.5774680899
 H          0.9182714046        1.2331378114       -2.1555387308
 C          0.1647292858       -0.7525820604       -1.8751590292
 C         -0.3457108721       -0.8885663452       -3.2780415206
 C          1.0208575673       -1.3918788229       -2.9254856967
 H          1.1861593349       -2.4576589825       -2.8798958099
 H          1.8771451711       -0.8320193904       -3.2728781392
 H         -1.1207136182       -1.6140080823       -3.4762671030
 H         -0.4116561423        0.0063729275       -3.8787006898
 H         -0.2581919304       -1.3979662794       -1.1131964089
