  62
        -98.93762902
 C         -2.6410735118       -1.1140087068        0.2042903896
 C         -2.7200513747       -0.2421838614       -0.9075220970
 C         -3.5193612216        0.9808363888       -0.7177947068
 C         -4.1205680290        1.2022266201        0.4636480735
 C         -5.0050543359        2.3576014684        0.8604151906
 C         -4.5512715649        3.7665686661        0.4511701591
 C         -3.0301794660        3.9704199422        0.3911490101
 H         -2.7699585185        4.8641257735        0.9616911462
 H         -2.5196055748        3.1268396152        0.8595777120
 C         -2.5078914263        4.1563363327       -1.0358510619
 H         -3.1879309531        4.8222731748       -1.5714848251
 H         -1.5344498217        4.6505594669       -0.9911876883
 C         -2.3264794761        2.8717575900       -1.8440725368
 H         -2.0729801398        3.1527755128       -2.8689038645
 H         -1.4803360013        2.3005779257       -1.4515677259
 C         -3.5439912862        1.9336051392       -1.8779773465
 H         -4.4742095203        2.4948591815       -1.9194378166
 H         -3.4662596168        1.3163984695       -2.7769383448
 H         -4.9821353839        4.4593506329        1.1758972832
 H         -4.9796955956        4.0198776117       -0.5175445287
 H         -6.0058960508        2.1734775415        0.4595780376
 H         -5.0786499410        2.2979938157        1.9489858907
 O         -4.0162826470        0.3321554701        1.5094209025
 C         -3.2698702320       -0.8302949462        1.4139675789
 O         -3.2388978695       -1.5110001868        2.4607684577
 H         -0.3463780895       -0.4076265436        1.1152532630
 C          0.2237444799       -0.9854501884        0.3965169583
 C         -0.3863223839       -2.0580230793       -0.2422796804
 C          0.3644610901       -2.8013511758       -1.1435011451
 C          1.6794611834       -2.4602862401       -1.4099354463
 C          2.2734082586       -1.3768162700       -0.7899063615
 C          1.5368095087       -0.6345391261        0.1241087651
 N          2.1253324281        0.4775104432        0.7524152976
 S          3.6139441502        0.2678055510        1.5013749924
 O          3.7832854876       -1.0882316713        1.9701433460
 O          3.6806339446        1.3079136897        2.5049121900
 C          4.7944923698        0.6242406196        0.2176286980
 C          4.6902762374        1.8314383562       -0.4452335261
 C          5.6086744840        2.1300489600       -1.4389027519
 C          6.6119170913        1.2235518564       -1.7483572621
 C          6.7048073379        0.0173001305       -1.0712157973
 C          5.7882175015       -0.2884659307       -0.0770656318
 H          5.8169444603       -1.2161515047        0.4718552637
 H          7.4855846421       -0.6856692264       -1.3131595404
 H          7.3253120529        1.4590700299       -2.5222185759
 H          5.5388434377        3.0666481226       -1.9682772483
 H          3.8978367592        2.5085745170       -0.1729677345
 H          1.4942149706        0.9808970274        1.3588807050
 H          3.2938292554       -1.1026924378       -1.0023628626
 H          2.2486690135       -3.0444243851       -2.1167288761
 H         -0.0815639923       -3.6468169932       -1.6408861498
 C         -1.8190212293       -2.3851601056        0.1073559018
 H         -1.8276750751       -2.8317938455        1.1132907665
 C         -2.4691786002       -3.3526776630       -0.8604526333
 C         -2.3438574726       -4.8314561847       -0.6544536967
 C         -3.6518937615       -4.1472080443       -0.3974160753
 H         -4.4664606151       -4.3104773431       -1.0868681720
 H         -3.9683486654       -4.0109704433        0.6269161468
 H         -2.2638718772       -5.4683270369       -1.5225342504
 H         -1.7757168513       -5.1723393980        0.1980597200
 H         -2.4865777039       -2.9737061710       -1.8757090038
 O         -2.1553073557       -0.4715199127       -2.0073175951
