  62
        -98.93884446
 C         -2.4510836570       -1.1264800739       -0.2462246225
 C         -2.5223561375        0.1696350848       -0.8109563595
 C         -3.8756128884        0.7215035363       -0.9719016479
 C         -4.9385793577       -0.0205617685       -0.6115219506
 C         -6.3659167876        0.4393676345       -0.6725870615
 C         -6.7970399812        1.0872534399        0.6507383434
 C         -5.8166034797        2.1378477679        1.1724646599
 H         -6.2383860914        2.5469380507        2.0931380058
 H         -4.8771841608        1.6482030199        1.4396045660
 C         -5.5284183313        3.2814240721        0.1898297272
 H         -6.3058645000        3.3179140996       -0.5741004379
 H         -5.5639787944        4.2273724410        0.7342856394
 C         -4.1576312896        3.2077846324       -0.4855979002
 H         -3.3812028027        3.0738920430        0.2721265333
 H         -3.9707164328        4.1647494613       -0.9799878929
 C         -3.9926016413        2.1072484474       -1.5413491612
 H         -4.8106258384        2.1620921950       -2.2623465162
 H         -3.0532357342        2.2924238913       -2.0703726741
 H         -7.7791167423        1.5419704114        0.5087555411
 H         -6.8915379097        0.3028502101        1.4052951988
 H         -6.4789380426        1.1482285424       -1.4903852272
 H         -6.9988961325       -0.4284244124       -0.8652255735
 O         -4.8296167344       -1.2723730957       -0.0961623701
 C         -3.5878694230       -1.8486177092        0.1150178545
 O         -3.6278072515       -2.9876402412        0.6239726233
 H          1.5158914966       -0.9456058645       -0.3621960041
 C          1.0680641494       -0.5735618828        0.5422941033
 C         -0.2406732211       -0.8988863443        0.8621840574
 C         -0.7821413843       -0.4095222584        2.0482679188
 C         -0.0345174769        0.3934700281        2.8864902676
 C          1.2736510640        0.7111333544        2.5664738315
 C          1.8276695035        0.2242952851        1.3884459596
 N          3.1444753573        0.5779606676        1.0344208788
 S          4.2931637899       -0.5491261446        0.5364296457
 O          3.7291494867       -1.4492158832       -0.4332409283
 O          4.9018362506       -1.1618030905        1.7008612273
 C          5.4642711635        0.5361654472       -0.2539606596
 C          5.0723543547        1.1581610826       -1.4238482625
 C          5.9592135547        2.0141394276       -2.0563608516
 C          7.2163011576        2.2321687797       -1.5113287089
 C          7.5950422852        1.6000161491       -0.3371183891
 C          6.7115821459        0.7431209471        0.3012584311
 H          6.9643049594        0.2271023472        1.2134255048
 H          8.5732926905        1.7709596087        0.0825693890
 H          7.9045967337        2.8984665192       -2.0070053778
 H          5.6678808966        2.5073332958       -2.9698649325
 H          4.0873369606        0.9573758931       -1.8130933457
 H          3.5750498972        1.1652491410        1.7375052946
 H          1.8592785271        1.3384392723        3.2221209050
 H         -0.4696394123        0.7708416027        3.7999968152
 H         -1.8027762745       -0.6663085376        2.3005269313
 C         -1.0986767073       -1.7762599742       -0.0176282230
 H         -1.2969576060       -2.7107339151        0.5287776533
 C         -0.4531803595       -2.1196247577       -1.3434841990
 C          0.5161416647       -3.2578920018       -1.4358882395
 C         -0.8485588695       -3.3847101749       -2.0416115414
 H         -0.9398566480       -3.3734878984       -3.1173164274
 H         -1.5717283361       -4.0178351893       -1.5479128014
 H          1.3706032781       -3.1580562533       -2.0881991029
 H          0.7252588120       -3.8092066576       -0.5312286266
 H         -0.2747605658       -1.2447756257       -1.9584744438
 O         -1.5120681316        0.8331527044       -1.1614730822
