  62
        -98.94054958
 C         -2.3631628750       -0.7907390991       -0.1207651705
 C         -3.5649418366       -1.0818325644        0.5683203590
 C         -4.7905677133       -0.5388660341       -0.0271537374
 C         -4.7205365234        0.1648305813       -1.1719914383
 C         -5.8845247978        0.7615690521       -1.9159296621
 C         -6.3229174015        2.1354609720       -1.3903689079
 C         -7.0470730133        2.1156064451       -0.0436730495
 H         -7.4852222784        3.1053727646        0.0990763128
 H         -7.8678362364        1.3989370999       -0.0844023696
 C         -6.1433749353        1.7985714057        1.1560385596
 H         -6.3503692508        2.5032449660        1.9646292917
 H         -5.0978518863        1.9373997918        0.8708211116
 C         -6.3180152280        0.3909149327        1.7263329223
 H         -5.6061643326        0.2619404114        2.5457227234
 H         -7.3249314029        0.2833196404        2.1355485037
 C         -6.0800664699       -0.7353220352        0.7116681945
 H         -6.0098838487       -1.6795931339        1.2570215528
 H         -6.9141820086       -0.7953334392        0.0131328702
 H         -5.4431191786        2.7794609671       -1.3221308397
 H         -6.9954967377        2.5689495434       -2.1340622245
 H         -6.7293646698        0.0729389631       -1.8877449698
 H         -5.5629827120        0.8763864049       -2.9532417698
 O         -3.5463970595        0.4058786515       -1.8144913102
 C         -2.3392322670       -0.0416601777       -1.2969932319
 O         -1.3425758571        0.2829301934       -1.9702327672
 O         -3.6099682175       -1.7593266199        1.6302162884
 C         -1.0513984425       -1.3008149776        0.4466312505
 C         -0.1336324895       -0.1435062610        0.7539635833
 C         -0.6085313536        0.8927490904        1.5554342724
 C          0.1949857458        1.9717983136        1.8658697439
 C          1.4954171733        2.0357838464        1.3960329708
 C          1.9787842864        1.0085981034        0.5954078512
 C          1.1660321697       -0.0726580534        0.2808052952
 H          1.5696414773       -0.8532617546       -0.3416644643
 N          3.2842056167        1.0561696047        0.0818300138
 S          4.1428978798       -0.3871414654       -0.0824748298
 O          3.7901561149       -1.0085001280       -1.3340025147
 O          3.9786279203       -1.1978027792        1.1031143722
 C          5.8095870320        0.2422948333       -0.1729809645
 C          6.5868251148        0.2699767055        0.9696759942
 C          7.8697597558        0.7893921095        0.8956360931
 C          8.3501144527        1.2725785317       -0.3122119393
 C          7.5587483403        1.2372612570       -1.4508591301
 C          6.2756882722        0.7178542346       -1.3842125475
 H          5.6282961162        0.6611682998       -2.2438550974
 H          7.9365699053        1.6108014954       -2.3889023176
 H          9.3486372612        1.6764899363       -0.3675326483
 H          8.4887140694        0.8147457803        1.7779699413
 H          6.1744405230       -0.1248011133        1.8842742553
 H          3.8470790953        1.7844415189        0.4992840609
 H          2.1257862184        2.8774768177        1.6397582438
 H         -0.1896788086        2.7674665208        2.4862301718
 H         -1.6220104662        0.8378048604        1.9299040293
 H         -1.3139014791       -1.7880199650        1.3981758708
 C         -0.4368722190       -2.3346964160       -0.4721379202
 C          0.5054467252       -3.3621917204        0.0773706242
 C         -0.8695619954       -3.7646440966       -0.3617761055
 H         -0.9738616558       -4.3428934471       -1.2674942433
 H         -1.5988344562       -4.0047897524        0.3980687286
 H          1.3525114425       -3.6565798234       -0.5246381473
 H          0.7163457930       -3.3303669840        1.1359334148
 H         -0.2409892968       -1.9467045281       -1.4661942529
