  62
        -98.94116759
 C          2.2942433312        0.6547113895       -0.2876737598
 C          3.5282139913        0.9659072790        0.3355287503
 C          4.3668808111       -0.1779412512        0.7146870900
 C          3.9127388209       -1.4257102211        0.4966982796
 C          4.6816245907       -2.6802740313        0.7920518392
 C          5.5090683806       -3.1255638110       -0.4221143809
 C          6.3468754808       -2.0080421610       -1.0436055305
 H          6.9091945108       -2.4459151908       -1.8711137307
 H          5.6783888109       -1.2571197207       -1.4707040403
 C          7.3181308509       -1.3255626814       -0.0703802703
 H          8.2862800909       -1.2135469314       -0.5629500102
 H          7.4712497808       -1.9579446317        0.8048375595
 C          6.8851984011        0.0699473385        0.3826851501
 H          6.6412901612        0.6795679988       -0.4909358097
 H          7.7331702012        0.5426947082        0.8852252903
 C          5.6962403711        0.1177208984        1.3506489601
 H          5.8788548010       -0.5541724419        2.1917799199
 H          5.6222559113        1.1386083883        1.7367086905
 H          6.1621852905       -3.9434156412       -0.1123484912
 H          4.8260134506       -3.5062299007       -1.1849809211
 H          5.3341422207       -2.5069863017        1.6456632193
 H          3.9695740305       -3.4677762413        1.0448857789
 O          2.7060129008       -1.6865493807       -0.0670481705
 C          1.8681790610       -0.6597180104       -0.4789415802
 O          0.8023762210       -1.0494286201       -0.9937785404
 O          3.9095131615        2.1453532089        0.5621496607
 C          1.3877180714        1.8026861697       -0.7007867694
 C          0.1641232414        1.7742582696        0.1811151605
 C          0.2861457414        2.1842061992        1.5064855307
 C         -0.7918692486        2.1163164591        2.3674936306
 C         -2.0143671287        1.6369025394        1.9284513704
 C         -2.1437120287        1.2171346599        0.6120572403
 C         -1.0600548687        1.2953141100       -0.2552079397
 H         -1.1696151187        0.9525676803       -1.2719727998
 N         -3.3849471288        0.7408182602        0.1409072301
 S         -4.2088541890       -0.3886150499        1.0894694697
 O         -4.7610620689        0.2904646798        2.2351344199
 O         -3.3629818992       -1.5263526802        1.3783192394
 C         -5.5216871590       -0.8486983294       -0.0239751705
 C         -5.3492988392       -1.9351129091       -0.8604050308
 C         -6.3643892992       -2.2681358987       -1.7436208709
 C         -7.5260315391       -1.5112440785       -1.7773113307
 C         -7.6839464489       -0.4233854687       -0.9316423104
 C         -6.6735685589       -0.0857219292       -0.0454368202
 H         -6.7537568488        0.7448061306        0.6360558200
 H         -8.5893053588        0.1611059115       -0.9598279802
 H         -8.3136703391       -1.7733954181       -2.4659026408
 H         -6.2448968193       -3.1147671085       -2.4004691512
 H         -4.4330331093       -2.5007075493       -0.7946906310
 H         -3.2996605788        0.3822475605       -0.8016950900
 H         -2.8588116687        1.5663601394        2.5941346204
 H         -0.6828828386        2.4367636088        3.3929648407
 H          1.2446799515        2.5444826889        1.8542476508
 H          1.9524557916        2.7159287496       -0.4682640691
 C          1.0862316515        1.7792342003       -2.1838300894
 C          0.5258717717        3.0046292306       -2.8400802991
 C          1.9379085516        2.5860182904       -3.1156919792
 H          2.1745090216        2.1721591207       -4.0845002793
 H          2.7383795917        3.1677644601       -2.6827506390
 H         -0.2081588283        2.8824479409       -3.6217798491
 H          0.3659443518        3.8714826504       -2.2170960788
 H          0.7485754213        0.8117565504       -2.5358903698
