  62
        -98.93441965
 C         -2.0280363302       -0.9945028101        0.5066541589
 C         -2.7291477100       -0.0483339102        1.2945725092
 C         -4.1608848000        0.1357716402        1.0048810793
 C         -4.7232234001       -0.5948805194        0.0268213790
 C         -6.1425705901       -0.5332760489       -0.4661699410
 C         -6.2634897999        0.4326702115       -1.6570168107
 C         -6.5106669596        1.8927285814       -1.2797208202
 H         -6.4478290095        2.4809656917       -2.1981542200
 H         -7.5268945096        1.9965519215       -0.8935248202
 C         -5.5358703495        2.4779074809       -0.2544540100
 H         -4.5177394995        2.1641775007       -0.4929336201
 H         -5.5670031993        3.5654932709       -0.3456215097
 C         -5.8768621196        2.0906782505        1.1922997599
 H         -5.9153799794        2.9917680603        1.8080954702
 H         -6.8758840397        1.6558564507        1.2191804697
 C         -4.8800403498        1.1372671001        1.8668508496
 H         -4.0818577197        1.7197646697        2.3378961098
 H         -5.3906432799        0.6003515099        2.6736151194
 H         -5.3460022499        0.3551439415       -2.2460442907
 H         -7.0882113800        0.1040502519       -2.2927339508
 H         -6.3966313603       -1.5389547988       -0.8075649913
 H         -6.8186860901       -0.2549642490        0.3367185591
 O         -4.0161089403       -1.4927946693       -0.7091869713
 C         -2.6604204004       -1.7133733796       -0.5084520113
 O         -2.1714411905       -2.5544631895       -1.2829449016
 O         -2.1750307299        0.6172305894        2.2121137694
 C         -0.5541906003       -1.1767146605        0.8209869889
 C          0.2921459399       -0.2480336004       -0.0108713008
 C          0.1625891500       -0.1993777899       -1.3953439108
 C          0.9578868602        0.6479537601       -2.1454862805
 C          1.8986706503        1.4585839597       -1.5340703402
 C          2.0374086503        1.4154349293       -0.1536440002
 C          1.2363511601        0.5654370592        0.5981418895
 H          1.3379222701        0.5480797988        1.6748447895
 N          3.0169302005        2.2182515789        0.4664116100
 S          4.6006785504        1.9223763087       -0.0043322200
 O          5.4256035305        2.4814730082        1.0417559002
 O          4.8067076105        2.4452406891       -1.3303131599
 C          4.7148323300        0.1430929487       -0.0152886306
 C          4.9398275699       -0.5069599718        1.1822190692
 C          4.9310317196       -1.8921322818        1.2051211087
 C          4.6835002194       -2.5998218514        0.0385827485
 C          4.4606221796       -1.9323638009       -1.1555102913
 C          4.4757685299       -0.5470625609       -1.1867428208
 H          4.3112719400        0.0074241694       -2.0957495307
 H          4.2684902495       -2.4859701606       -2.0604252415
 H          4.6612344092       -3.6775143914        0.0607245082
 H          5.1075316795       -2.4151172421        2.1313460286
 H          5.1294391400        0.0799191279        2.0669070194
 H          2.9537168104        2.2168484685        1.4747931500
 H          2.5321093005        2.1186472698       -2.1044876100
 H          0.8448959002        0.6773723405       -3.2187196605
 H         -0.5635648002       -0.8384391296       -1.8747623610
 H         -0.4557160502       -0.8580158909        1.8708247790
 C         -0.0879418606       -2.6243779606        0.7413919084
 C          0.8902779293       -3.1276089705       -0.2734653717
 C          1.3100934694       -2.9778833310        1.1556690983
 H          1.4649756292       -3.8653023812        1.7497477081
 H          1.9776137295       -2.1626941812        1.3926788186
 H          0.7278784291       -4.1179007303       -0.6698354020
 H          1.2859254695       -2.4298016403       -0.9942186215
 H         -0.8713056107       -3.3159938505        1.0331891282
