  62
        -98.94551643
 C         -2.2222667402       -1.0125806976        0.2110645903
 C         -1.5664048606       -0.2772878079       -0.8075589130
 C         -2.0393563045        1.0996716541       -1.0153141160
 C         -2.9953556072        1.5996002576       -0.2136313307
 C         -3.5580852015        2.9881142873       -0.3031936701
 C         -2.7964553518        3.9700926540        0.5964500471
 C         -1.2775860854        3.9200819911        0.4280210451
 H         -0.8538457248        4.6946364430        1.0721302165
 H         -0.8975186343        2.9637337903        0.7961888128
 C         -0.7879718924        4.1289584242       -1.0117228933
 H         -1.5716881707        4.5975524244       -1.6092118711
 H          0.0621342562        4.8142650940       -0.9925839176
 C         -0.3115196476        2.8474837041       -1.6981636986
 H          0.2568135189        3.1259845155       -2.5898993315
 H          0.3653746544        2.3163107390       -1.0242774565
 C         -1.4171224588        1.8794123317       -2.1393135700
 H         -2.1814721531        2.4231973255       -2.6994568471
 H         -0.9643060839        1.1384627968       -2.8046892849
 H         -3.1535379956        4.9795219512        0.3816677811
 H         -3.0319627286        3.7413077487        1.6386551731
 H         -3.5159246174        3.3222534107       -1.3382500469
 H         -4.6016456492        2.9543758365        0.0160096303
 O         -3.5484250506        0.8905951427        0.8050240489
 C         -3.1632465411       -0.4163560039        1.0523574776
 O         -3.7241246785       -0.9360169974        2.0402594111
 O         -0.6466474610       -0.7411700360       -1.5288777587
 C         -1.8413298149       -2.4513280641        0.5293724446
 C         -0.3375187247       -2.5548265106        0.5595824424
 C          0.4106211297       -3.3903166230       -0.2588803709
 C          1.7942414507       -3.3485700530       -0.2289005655
 C          2.4580884506       -2.4589631523        0.5967512311
 C          1.7165122899       -1.6337015859        1.4305614979
 C          0.3356720981       -1.7059076859        1.4302419347
 H         -0.2353351959       -1.0437119937        2.0712328497
 N          2.3981575128       -0.6463047432        2.2045386270
 S          2.3075788980        0.8504765620        1.4194083308
 O          3.0246033690        1.7806744880        2.2673824158
 O          0.9361166479        1.2141906392        1.1341352170
 C          3.2222845377        0.5437163747       -0.0711652475
 C          2.5679330910        0.0904912200       -1.1993830263
 C          3.3185656338       -0.1928719722       -2.3306426543
 C          4.6943280767       -0.0247308613       -2.3130402444
 C          5.3343498780        0.4288360052       -1.1689083005
 C          4.5930268608        0.7136882005       -0.0342059776
 H          5.0413432866        1.0698217566        0.8787854983
 H          6.4047008148        0.5575592795       -1.1571588300
 H          5.2709051988       -0.2502087800       -3.1964289166
 H          2.8168979745       -0.5507293691       -3.2152801002
 H          1.4966607184       -0.0446565969       -1.1872003307
 H          1.9949277639       -0.5307032025        3.1257701513
 H          3.5335181879       -2.3864599052        0.5995339355
 H          2.3616154764       -3.9968539688       -0.8784915271
 H         -0.0913376412       -4.0485599208       -0.9488901944
 H         -2.2156949585       -2.6242085972        1.5524168035
 C         -2.5080643093       -3.4889487897       -0.3604362062
 C         -3.8535050414       -3.2279647879       -0.9675834527
 C         -2.6401416734       -3.3102856847       -1.8417689848
 H         -2.5252202809       -4.1787614489       -2.4735815525
 H         -2.2520232035       -2.4009801974       -2.2716373130
 H         -4.5684649901       -4.0364559542       -0.9964742202
 H         -4.2986513270       -2.2581782077       -0.7962993440
 H         -2.3324795370       -4.4990073002       -0.0031157411
