  62
        -98.94034188
 C         -1.7814329874       -0.6697282732        0.9397584815
 C         -2.0127218747       -0.2989130330       -0.4081530650
 C         -3.4044388765       -0.4170606984       -0.8735776469
 C         -4.3530035333       -0.8586917774       -0.0290436177
 C         -5.8122908336       -0.9751713522       -0.3593194083
 C         -6.5673519246        0.3106428335        0.0055331506
 C         -5.9022703531        1.5858498573       -0.5128547153
 H         -6.5384696764        2.4250028010       -0.2228946009
 H         -4.9437446589        1.7201116809       -0.0060501415
 C         -5.6791842264        1.6140940559       -2.0313714456
 H         -5.9809375088        2.5927236922       -2.4106443315
 H         -6.3152112102        0.8703852092       -2.5128795464
 C         -4.2279345755        1.3969463320       -2.4643886945
 H         -4.1480549389        1.6542074636       -3.5239520303
 H         -3.5741724076        2.0776124379       -1.9128566862
 C         -3.6874326626       -0.0288211684       -2.2975182355
 H         -4.3726607213       -0.7397727438       -2.7634685048
 H         -2.7273517696       -0.0817338143       -2.8189768677
 H         -6.6323184791        0.3769657125        1.0941392074
 H         -7.5817787098        0.2399414020       -0.3911500149
 H         -5.9240266237       -1.1860540695       -1.4210196208
 H         -6.2296807365       -1.8053592613        0.2130659922
 O         -4.0933420601       -1.2035443124        1.2584272665
 C         -2.8143312461       -1.0943125981        1.7792466047
 O         -2.7264489959       -1.3961972329        2.9863514494
 H          2.0227089168       -0.0684709365        0.3243318422
 C          1.4800409326        0.8275474423        0.5721373989
 C          0.2395828878        0.7494678290        1.1827800419
 C         -0.4392070244        1.9333592494        1.4635739302
 C          0.1018507228        3.1569110751        1.1236125647
 C          1.3463295363        3.2299113710        0.5213088027
 C          2.0370249662        2.0572299740        0.2485910300
 N          3.2997613345        2.0855658400       -0.3638182491
 S          4.5073282278        1.0917900613        0.2316417692
 O          4.3746967664        0.8940667932        1.6568718762
 O          5.7405927608        1.7081553907       -0.2105811938
 C          4.3065912932       -0.4575474838       -0.6215563853
 C          4.4053651583       -1.6350739777        0.0929342564
 C          4.2945117367       -2.8409398209       -0.5814402237
 C          4.0885191097       -2.8474155638       -1.9526836607
 C          3.9921347311       -1.6558337113       -2.6553332244
 C          4.1056930324       -0.4471443316       -1.9874480932
 H          4.0366442195        0.4967253360       -2.5014711961
 H          3.8277520033       -1.6657974112       -3.7207356503
 H          3.9990150055       -3.7867734354       -2.4753429920
 H          4.3668148150       -3.7683468177       -0.0354815275
 H          4.5558314732       -1.5829511219        1.1596470801
 H          3.6489483609        3.0088957601       -0.5756916336
 H          1.7747305993        4.1859713405        0.2602609080
 H         -0.4434497591        4.0643841125        1.3367778308
 H         -1.4080516077        1.8776260409        1.9427314641
 C         -0.4022689027       -0.5611167430        1.5671771624
 H         -0.5854788570       -0.5332129222        2.6548566079
 C          0.4942713693       -1.7634870039        1.3099578040
 C         -0.0851930243       -3.1264444001        1.0798995944
 C          0.5986490374       -2.4045187171       -0.0401118633
 H          1.5661587092       -2.7578324674       -0.3653719663
 H         -0.0041822463       -1.9914931631       -0.8327046880
 H         -1.1616319155       -3.2155381899        1.0547318590
 H          0.4113270482       -3.9738918967        1.5279852642
 H          1.4027605562       -1.7231975165        1.9043871604
 O         -1.1178414259        0.1101316365       -1.1909281533
