  62
        -98.93305617
 C          1.4950358340        1.5746913640        0.3824985438
 C          1.6805642364        0.2501150574        0.8476895963
 C          2.9453591960       -0.4198632731        0.4969908155
 C          3.8451592288        0.2459212497       -0.2488058166
 C          5.2067918517       -0.2034927081       -0.7156400028
 C          5.3168526220       -1.6375484082       -1.2559439609
 C          6.0821510185       -2.5818887985       -0.3268859697
 H          6.4903790179       -3.4020844208       -0.9216885337
 H          6.9275587872       -2.0387688302        0.1007660259
 C          5.2558537070       -3.1976345055        0.8010907005
 H          4.5689045160       -3.9371620953        0.3840212093
 H          5.9440938166       -3.7305723609        1.4614044601
 C          4.4465060669       -2.2039375043        1.6368850328
 H          5.0303773060       -1.3049478126        1.8320231420
 H          4.2442565117       -2.6676985909        2.6048239277
 C          3.0969329629       -1.8271033293        1.0069156289
 H          2.8595633297       -2.5243741373        0.1980867246
 H          2.3010891038       -1.9390575558        1.7502308674
 H          4.3241973314       -2.0324582146       -1.4655171810
 H          5.8535127770       -1.5936400836       -2.2050266034
 H          5.4876918226        0.5090610851       -1.4945413101
 H          5.9154087401       -0.0616191732        0.1044333704
 O          3.6236901933        1.5180406133       -0.6817052921
 C          2.4555431158        2.2138318660       -0.4010558135
 O          2.4208422734        3.3518399067       -0.9011127270
 O          0.8180024524       -0.3512344128        1.5441268853
 C          0.1828990755        2.2412217650        0.7549617572
 C         -0.8736757373        1.8944059619       -0.2625964012
 C         -0.6605729390        2.1078568267       -1.6216808524
 C         -1.6346031435        1.7702125462       -2.5426644529
 C         -2.8251812953        1.1952675372       -2.1313517752
 C         -3.0439626554        0.9698631835       -0.7778138334
 C         -2.0727664848        1.3321554105        0.1470369617
 H         -2.2571760357        1.1513213027        1.1950283168
 N         -4.2450756754        0.3948718336       -0.3303080665
 S         -4.2102140407       -0.8719497419        0.7662276789
 O         -5.5592409999       -1.3938433995        0.7495170715
 O         -3.7260592761       -0.4062897766        2.0393674489
 C         -3.0982347503       -2.0648257697        0.0445588768
 C         -3.6350482387       -3.0055943336       -0.8146083297
 C         -2.7907494537       -3.9088522584       -1.4378686198
 C         -1.4250103709       -3.8510972886       -1.2016037387
 C         -0.9036195594       -2.9004091930       -0.3391939654
 C         -1.7427438098       -1.9959014861        0.2935513126
 H         -1.3405754558       -1.2568074196        0.9681574439
 H          0.1557961577       -2.8419537639       -0.1446873898
 H         -0.7646253877       -4.5513421431       -1.6886581406
 H         -3.1965969959       -4.6520118311       -2.1052429298
 H         -4.7028700242       -3.0204061605       -0.9625067883
 H         -4.9054195772        0.1957690208       -1.0684759114
 H         -3.5807406618        0.9243402550       -2.8530185214
 H         -1.4620967009        1.9474788516       -3.5934858606
 H          0.2739458281        2.5442303098       -1.9423160667
 H         -0.1152989866        1.7692511792        1.7055304816
 C          0.3010868144        3.7355287335        1.0145044606
 C         -0.3155211955        4.7817835129        0.1402072961
 C         -0.8994052122        4.4997813551        1.4899153984
 H         -0.7729508968        5.2289145145        2.2758273121
 H         -1.8396504872        3.9690460795        1.5271868501
 H          0.2384102436        5.6961647043       -0.0073320417
 H         -0.8682081471        4.4641247316       -0.7295760958
 H          1.2519219768        3.9938493560        1.4689756356
