  62
        -98.94501827
 C          2.1967893600        0.8078934699       -0.1240576105
 C          3.0397889401        0.5342023203        0.9860231495
 C          3.8480473502       -0.6858903497        0.9059679198
 C          3.7314435202       -1.4911022400       -0.1650621199
 C          4.4623044003       -2.7877860200       -0.3843325296
 C          5.8709264402       -2.6197329401       -0.9706317797
 C          6.9159387202       -2.0631947997       -0.0027690100
 H          6.9075866703       -2.6509818094        0.9156139902
 H          7.8921764702       -2.2037727598       -0.4709087200
 C          6.7392596301       -0.5757785796        0.3332270996
 H          6.0819187000       -0.1113081199       -0.4054126705
 H          7.7049351501       -0.0699716996        0.2650702394
 C          6.1829480202       -0.3032062092        1.7307809796
 H          6.0645209401        0.7769057308        1.8476634493
 H          6.8960892003       -0.6474413490        2.4829625496
 C          4.8249535403       -0.9609540593        2.0090682099
 H          4.9477607404       -2.0348975192        2.1480228802
 H          4.4171291503       -0.5330052390        2.9279918498
 H          6.2036325403       -3.6052978701       -1.3044354995
 H          5.8079697101       -1.9749078503       -1.8502411099
 H          4.5205330904       -3.3379644497        0.5553802306
 H          3.8617196302       -3.3672984003       -1.0890431394
 O          2.8912182701       -1.2127406104       -1.1950868699
 C          2.1187245800       -0.0595525704       -1.2133637002
 O          1.4291058899        0.0523615292       -2.2478624902
 O          3.1143163101        1.2817855906        1.9967102793
 C          1.3639391299        2.0786279099       -0.0525023808
 C         -0.0586234100        1.7383352899        0.3221286494
 C         -0.5281759300        1.9822409702        1.6079888593
 C         -1.8167854199        1.6285332002        1.9670668495
 C         -2.6605228199        1.0198232399        1.0551031398
 C         -2.1957199800        0.7589975895       -0.2269880902
 C         -0.9094440601        1.1298993795       -0.5898058804
 H         -0.5492115201        0.9024005693       -1.5817861303
 N         -3.0396060400        0.1206437292       -1.1570028999
 S         -3.7015169899       -1.3520313707       -0.6867430695
 O         -2.8692688798       -2.0218148204        0.2870638907
 O         -3.9604246299       -2.0688815011       -1.9165591592
 C         -5.2574543299       -0.8934105306        0.0496249305
 C         -6.1546979500       -0.1798270509       -0.7209286896
 C         -7.3714703000        0.1839182892       -0.1666976297
 C         -7.6699459098       -0.1720759505        1.1402757505
 C         -6.7602012597       -0.8919883502        1.8994469806
 C         -5.5406623797       -1.2584029802        1.3511478406
 H         -4.7996162597       -1.8133042200        1.9044199008
 H         -6.9939897797       -1.1685223599        2.9150074907
 H         -8.6173818898        0.1128435796        1.5697965004
 H         -8.0816544900        0.7430933489       -0.7542472898
 H         -5.8841867301        0.0726301388       -1.7325777697
 H         -2.6140723101        0.0284675790       -2.0693200599
 H         -3.6630036099        0.7349179699        1.3297751399
 H         -2.1674249199        1.8256677305        2.9686294995
 H          0.1343592500        2.4346237205        2.3316790392
 H          1.7976192899        2.6549435801        0.7756953190
 C          1.4407533598        2.9180701795       -1.3117079011
 C          1.0711043297        4.3683320795       -1.2394822215
 C          2.5032537197        3.9681810095       -1.4251185514
 H          2.9662817996        4.1296394793       -2.3870580715
 H          3.1791542197        4.0870703598       -0.5908012915
 H          0.5475436196        4.8080899292       -2.0742799216
 H          0.7754911597        4.7597410698       -0.2779792116
 H          1.1855900997        2.3757243892       -2.2126553109
