  62
        -98.93921995
 C          2.1276581634        1.0228867620        0.0658595437
 C          2.8672280679        0.3265326910        1.0468535155
 C          3.6262371129       -0.8570155799        0.5981508010
 C          3.5393859406       -1.2280830168       -0.6930689049
 C          4.2461938772       -2.3649182526       -1.3817143941
 C          5.7252945138       -2.0548897352       -1.6676077003
 C          6.4745077844       -1.3751335344       -0.5241883766
 H          7.4661490659       -1.1015437033       -0.8939840560
 H          5.9608333159       -0.4489255825       -0.2601318699
 C          6.6628931761       -2.2270662852        0.7287045145
 H          7.2244026775       -3.1270541144        0.4682365446
 H          7.2706541242       -1.6469182310        1.4277315658
 C          5.3814898588       -2.6488997959        1.4498940215
 H          5.6732120991       -3.0441312219        2.4274315661
 H          4.8864991981       -3.4613770422        0.9246393762
 C          4.3961769204       -1.5153935232        1.7180809910
 H          3.6389350410       -1.8741673894        2.4263019393
 H          4.9167013720       -0.7048242372        2.2406841531
 H          6.2276195876       -2.9865372596       -1.9330090409
 H          5.7673403359       -1.3898730141       -2.5335773110
 H          4.1445127738       -3.2752192819       -0.7980438309
 H          3.7328585468       -2.5223423662       -2.3330103383
 O          2.7814556784       -0.5454426384       -1.5989118613
 C          2.0619738345        0.5848591136       -1.2563628726
 O          1.4211642966        1.0946768873       -2.1946261190
 H         -0.0679540292        0.1505071639        1.2477285977
 C         -0.6947006017        0.8488500411        0.7055969256
 C         -0.1309619789        2.0229623745        0.2201989594
 C         -0.9451451417        2.9090345388       -0.4717692977
 C         -2.2808095384        2.6124985962       -0.6842828793
 C         -2.8342411127        1.4389603587       -0.2072489333
 C         -2.0305179106        0.5488057340        0.4935150958
 N         -2.5863901432       -0.6424537629        0.9968765064
 S         -3.4154183089       -1.6296726220       -0.0816248427
 O         -3.3356452963       -2.9576098088        0.4887653360
 O         -2.9226847057       -1.4795355919       -1.4313701725
 C         -5.0969075993       -1.0536850885        0.0270630976
 C         -5.6930567484       -1.0126600025        1.2724168848
 C         -7.0037708183       -0.5743009056        1.3720034986
 C         -7.6933492554       -0.1904862229        0.2313313109
 C         -7.0817325999       -0.2408707242       -1.0118811965
 C         -5.7699940285       -0.6768957397       -1.1184662884
 H         -5.2502708208       -0.7266066958       -2.0621516009
 H         -7.6189177608        0.0575948795       -1.8977428456
 H         -8.7134724224        0.1502973408        0.3117130307
 H         -7.4825894899       -0.5333169977        2.3370177450
 H         -5.1232442119       -1.3227161460        2.1322984371
 H         -1.9321033093       -1.1916320870        1.5362273620
 H         -3.8716711018        1.2018726114       -0.3777445503
 H         -2.8997565522        3.3063953596       -1.2322229855
 H         -0.5321518719        3.8265702346       -0.8569011542
 C          1.3390087818        2.2556178705        0.4695447503
 H          1.4902716890        2.3566808010        1.5547218970
 C          1.8889772515        3.4874033826       -0.2171286800
 C          1.7461438415        4.8347728154        0.4234233736
 C          3.0871700705        4.1686799229        0.3706980151
 H          3.8360895769        4.5631584373       -0.2994903164
 H          3.4924914950        3.7575490001        1.2838318638
 H          1.2422941341        4.8832853981        1.3767407023
 H          1.5762105503        5.6916330511       -0.2106908591
 H          1.8311108187        3.4215924762       -1.2978307106
 O          2.8981640022        0.6756709815        2.2592389701
