  62
        -98.93459014
 C         -2.0631511744       -1.1641800310        0.2797587320
 C         -1.5713907279       -0.1335018406        1.1212376739
 C         -1.9247407310        1.2536238658        0.7858497264
 C         -2.6718023489        1.4797736294       -0.3083965570
 C         -3.1366474819        2.7986209379       -0.8685214599
 C         -2.0343035009        3.8571890287       -1.0381185259
 C         -2.1862791060        5.0432380438       -0.0849310764
 H         -1.6604134965        5.9008179240       -0.5106173089
 H         -3.2449053776        5.3052881518       -0.0253841427
 C         -1.6394676975        4.8187082311        1.3234933978
 H         -0.5481542997        4.7943991285        1.2830128190
 H         -1.9251898574        5.6826652326        1.9284094291
 C         -2.1222200438        3.5472057477        2.0258113417
 H         -2.0246133054        3.7075980033        3.1016875542
 H         -3.1780864254        3.3731568866        1.8243340535
 C         -1.3035153358        2.2982270091        1.6722158689
 H         -0.3522312727        2.5910274906        1.2135562558
 H         -1.0412778503        1.7610246535        2.5896700047
 H         -2.0834021648        4.2346053000       -2.0613265064
 H         -1.0571407961        3.3862532393       -0.9207898063
 H         -3.5783855623        2.5609766263       -1.8388045334
 H         -3.9398539981        3.1914753840       -0.2413212912
 O         -3.1287863080        0.4637870186       -1.0907317146
 C         -2.7839969370       -0.8634480371       -0.8728504472
 O         -3.1877614424       -1.6291889570       -1.7714981894
 H         -0.3144134232       -1.4937810038       -1.5286138611
 C          0.3922984384       -1.9412015152       -0.8409408387
 C         -0.0709699681       -2.5841161347        0.2977633077
 C          0.8564545627       -3.1524103500        1.1613322444
 C          2.2135992377       -3.0456772604        0.9111524403
 C          2.6708534792       -2.3321773656       -0.1830054158
 C          1.7490919463       -1.7769896158       -1.0591405777
 N          2.2197895090       -0.9236477042       -2.1026238064
 S          2.0530448702        0.6894236543       -1.6094685258
 O          0.6785998358        1.0126286061       -1.2893347636
 O          2.6417601006        1.4861002872       -2.6654815770
 C          3.0669566787        0.7424281326       -0.1518880319
 C          4.4273530461        0.9280122965       -0.3051032419
 C          5.2342401424        0.9229491342        0.8210063589
 C          4.6691782422        0.7279323913        2.0727299902
 C          3.3019556483        0.5419571735        2.2079792615
 C          2.4873904208        0.5467085471        1.0862286623
 H          1.4208114824        0.3957607574        1.1612391172
 H          2.8571220652        0.3858300534        3.1775763865
 H          5.2971498768        0.7202143778        2.9496497543
 H          6.2978062151        1.0673676923        0.7198152551
 H          4.8166522114        1.0772355466       -1.2987554601
 H          1.6948555312       -1.0347416104       -2.9610747292
 H          3.7238811927       -2.1866358388       -0.3600683402
 H          2.9221046111       -3.4865249568        1.5947162743
 H          0.5088140342       -3.6506518466        2.0535513385
 C         -1.5505359908       -2.5578556292        0.6109047795
 H         -1.6546790188       -2.6750697316        1.6992710998
 C         -2.2641943261       -3.7073472059       -0.0650541289
 C         -2.2393699709       -5.0611339640        0.5784921123
 C         -3.5106206815       -4.2686880617        0.5470121920
 H         -4.3056659677       -4.5800643971       -0.1127849842
 H         -3.8587093697       -3.8232664911        1.4673369754
 H         -2.1583376189       -5.9285152716       -0.0579896780
 H         -1.7304484299       -5.1603669022        1.5248839132
 H         -2.2231839554       -3.6654879234       -1.1455220598
 O         -0.8423943693       -0.3767209825        2.1215734720
