  62
        -98.94165509
 C          2.0648530894        1.5035638603        0.0509375709
 C          2.3619612897        0.5783674906       -0.9800015392
 C          3.7056300798       -0.0224551692       -0.9363813591
 C          4.5547120595        0.3129646406        0.0506964812
 C          5.9273199395       -0.2633060193        0.2399867714
 C          5.8929010595       -1.4983334595        1.1508662711
 C          4.8301156497       -2.5249472496        0.7591064305
 H          4.9203139296       -3.3664099397        1.4495362403
 H          3.8396700796       -2.0899065297        0.9129850604
 C          4.9415316501       -3.0343993191       -0.6847658096
 H          5.9363744302       -2.8209382389       -1.0773528593
 H          4.8199815602       -4.1197343992       -0.6832127999
 C          3.8880627903       -2.4699405290       -1.6397233697
 H          3.9186410206       -3.0550098088       -2.5629019398
 H          2.8939571202       -2.5998638693       -1.2039263800
 C          4.0587127902       -0.9953217689       -2.0266713993
 H          5.0774292602       -0.8243279687       -2.3803752990
 H          3.3693827804       -0.7869913888       -2.8502297694
 H          5.6905140492       -1.1697993798        2.1729256611
 H          6.8782800895       -1.9675080894        1.1336980812
 H          6.3425662198       -0.5265599590       -0.7309846186
 H          6.5585569393        0.4986770907        0.7004420418
 O          4.2332326992        1.1972499103        1.0284520414
 C          2.9915931291        1.8073346201        1.0535826412
 O          2.8331872588        2.6007005599        2.0027445714
 H         -0.0672136103       -0.2527916598       -0.4788211901
 C         -0.6054616105        0.1385499699        0.3718517399
 C         -0.3110032608        1.4154038798        0.8315254503
 C         -1.0189564111        1.9100011194        1.9202647903
 C         -1.9899675512        1.1405842391        2.5382809898
 C         -2.2793356809       -0.1314194908        2.0789299494
 C         -1.5810378806       -0.6324415604        0.9871009795
 N         -1.8815044703       -1.9168078503        0.4992195690
 S         -3.4991616902       -2.2831652104        0.2654281385
 O         -4.0905198705       -2.6683047608        1.5229547683
 O         -3.5193782898       -3.2867403301       -0.7748589317
 C         -4.2376408903       -0.7634681204       -0.3078039512
 C         -5.1734687005       -0.1135548607        0.4708389687
 C         -5.6947353706        1.0910692694        0.0264463189
 C         -5.2706758303        1.6235436597       -1.1809727008
 C         -4.3346964601        0.9553517301       -1.9554501708
 C         -3.8100145900       -0.2493545700       -1.5160576710
 H         -3.0816126698       -0.7944642897       -2.0957991809
 H         -4.0042110299        1.3717537204       -2.8933837406
 H         -5.6702681204        2.5650074198       -1.5229742607
 H         -6.4247730108        1.6116614391        0.6249388189
 H         -5.4741792607       -0.5623946210        1.4033436485
 H         -1.3286706801       -2.1811218800       -0.3033642409
 H         -3.0269193110       -0.7475370510        2.5515840591
 H         -2.5270743814        1.5347483288        3.3872088298
 H         -0.7928095613        2.8990652894        2.2907132806
 C          0.7420070093        2.2486766901        0.1479303408
 H          0.9524926690        3.1118169400        0.7982277111
 C          0.2839122095        2.8017102804       -1.1968955492
 C         -0.9182576702        2.3098923505       -1.9397188496
 C         -0.9504570806        3.6510722203       -1.2753234892
 H         -0.9294042505        4.5390010105       -1.8885915590
 H         -1.5419261208        3.7452772900       -0.3771321293
 H         -0.8503953500        2.2605939808       -3.0158312596
 H         -1.5017666703        1.5152330103       -1.5028226699
 H          1.1264068596        3.1138534107       -1.8062413489
 O          1.5644630100        0.2538714608       -1.8983152595
