  62
        -98.94526407
 C          1.6103291281        0.1932240839       -0.6153346269
 C          2.8873668886        0.6343810018       -1.0419266683
 C          3.9445253595        0.6228255196       -0.0255424846
 C          3.6531226537        0.2519946103        1.2344802423
 C          4.6131197474        0.2238985435        2.3928972572
 C          5.4595364222       -1.0540393080        2.4734296150
 C          6.5574155939       -1.1755229372        1.4158125977
 H          7.1626219888       -0.2684353380        1.4165640823
 H          7.2055681285       -1.9994686796        1.7208500456
 C          6.0415585422       -1.4523325163       -0.0032201295
 H          5.0099151270       -1.8077417749        0.0475703315
 H          6.6334020127       -2.2507082775       -0.4563965025
 C          6.1045997885       -0.2508822703       -0.9462976394
 H          7.1466419019        0.0323423529       -1.1102249765
 H          5.6808041392       -0.5482723685       -1.9087797299
 C          5.3363959818        0.9814698177       -0.4510259356
 H          5.8748277294        1.4563878842        0.3689015611
 H          5.2583641463        1.6924657173       -1.2771903872
 H          4.7939585075       -1.9179108286        2.4094201081
 H          5.9305575033       -1.0702566204        3.4590233576
 H          5.2689167974        1.0938928111        2.3462714417
 H          4.0072550465        0.2939360771        3.2990631480
 O          2.4059211623       -0.1327154634        1.6140407828
 C          1.3590706450       -0.1891174124        0.7028403283
 O          0.2867358135       -0.5946022962        1.1888880709
 H         -2.1279070669       -0.0137926739       -0.7414313538
 C         -1.7853907354        1.0030632107       -0.8069116097
 C         -0.5025850613        1.2754467317       -1.2519510767
 C         -0.0934188963        2.6046448744       -1.3370916178
 C         -0.9492315314        3.6294339188       -0.9846450265
 C         -2.2248421004        3.3503474024       -0.5225680061
 C         -2.6404696798        2.0293329964       -0.4272323015
 N         -3.9321947253        1.6995634116        0.0251547600
 S         -4.0547677814        0.6445502743        1.3326742904
 O         -5.3981701824        0.8594290705        1.8324057453
 O         -2.9891276560        0.8626761755        2.2824478869
 C         -3.9676999716       -0.9824644510        0.6181470223
 C         -5.0074987124       -1.3830573402       -0.1983075160
 C         -4.9624664770       -2.6446892149       -0.7687913306
 C         -3.8861377569       -3.4804289293       -0.5100149532
 C         -2.8537579009       -3.0635905062        0.3163727863
 C         -2.8892093788       -1.8012704140        0.8895815370
 H         -2.0866818860       -1.4311309059        1.5096069481
 H         -2.0129208289       -3.7097254854        0.5147578289
 H         -3.8487359220       -4.4624206429       -0.9552150649
 H         -5.7622246667       -2.9722206500       -1.4132214278
 H         -5.8271714686       -0.7043650882       -0.3651435496
 H         -4.5258560243        2.5025900211        0.1829577596
 H         -2.8914635814        4.1499783028       -0.2355520500
 H         -0.6206120877        4.6551994582       -1.0608636699
 H          0.9077552351        2.8205038387       -1.6841727288
 C          0.4752668534        0.1886342090       -1.6261386653
 H          0.9403473460        0.4685977423       -2.5822982970
 C         -0.1526838754       -1.1811608812       -1.7652150929
 C         -1.0146115269       -1.4864530994       -2.9527030402
 C          0.3401869239       -2.1144221485       -2.8281703234
 H          0.4031342030       -3.1674766295       -2.5991891424
 H          1.1292363099       -1.7614591398       -3.4761086869
 H         -1.1454890469       -0.7054101354       -3.6860906461
 H         -1.8860843589       -2.1067716732       -2.8075803089
 H         -0.4313786969       -1.6165997798       -0.8134924279
 O          3.1300948417        1.0234731604       -2.2156174037
