  62
        -98.95212100
 C         -2.3490966257       -0.3907211030        0.0425263814
 C         -1.5227538432        0.1986452299       -0.9420541467
 C         -1.5652042008        1.6637936404       -1.0273967816
 C         -2.3637440099        2.3476181417       -0.1880421722
 C         -2.5180875587        3.8408184759       -0.1735680401
 C         -1.5473532753        4.5105028412        0.8071236776
 C         -0.0951298497        4.0585409914        0.6523993694
 H          0.5030740781        4.6439990268        1.3550622935
 H         -0.0028261654        3.0135961564        0.9578483879
 C          0.4773447649        4.2203643978       -0.7626261515
 H          1.4832268077        4.6382700871       -0.6827411272
 H         -0.1261781404        4.9294197565       -1.3314787770
 C          0.6016679103        2.9083912942       -1.5399272329
 H          1.0794928774        2.1624036272       -0.8997279559
 H          1.2579717790        3.0787855080       -2.3978961967
 C         -0.7116451892        2.3219505810       -2.0745483082
 H         -1.2739727715        3.0973441013       -2.5999417859
 H         -0.4589644242        1.5349955122       -2.7911878914
 H         -1.8684077605        4.2814632030        1.8260719491
 H         -1.6101894220        5.5917323345        0.6662981461
 H         -3.5408851331        4.0730774072        0.1297755280
 H         -2.3529962308        4.2232582141       -1.1792627928
 O         -3.1267841212        1.7484723470        0.7627165769
 C         -3.1248259635        0.3714557238        0.9135163636
 O         -3.8510467092       -0.0482770754        1.8392317876
 O         -0.7968630717       -0.4708001871       -1.7243417212
 C         -2.3844393897       -1.9015356168        0.1891076613
 C         -0.9851537849       -2.4466680125        0.3393407375
 C         -0.5476462413       -3.6089464191       -0.2842911743
 C          0.7552971990       -4.0464734042       -0.1197545258
 C          1.6530874847       -3.3260923381        0.6466608678
 C          1.2215842272       -2.1681571397        1.2829024945
 C         -0.0945661396       -1.7571119845        1.1518978781
 H         -0.4161112417       -0.8573525629        1.6562957454
 N          2.1000253946       -1.3817925243        2.0581927149
 S          2.3896378542        0.1801694672        1.5197196720
 O          3.3513106924        0.7259819373        2.4539452365
 O          1.1463931923        0.8937557684        1.3950467641
 C          3.1751344152       -0.0381999474       -0.0676769444
 C          4.5514391396        0.0691950549       -0.1362109757
 C          5.1853211532       -0.1611883576       -1.3458715003
 C          4.4355202437       -0.5035785924       -2.4613727893
 C          3.0566068066       -0.6113212303       -2.3741492837
 C          2.4132671015       -0.3793215547       -1.1673591173
 H          1.3393927889       -0.4546984849       -1.0882516086
 H          2.4650021381       -0.8763624619       -3.2356781356
 H          4.9273177303       -0.6865116545       -3.4038215235
 H          6.2578324409       -0.0752729745       -1.4143964658
 H          5.0905154459        0.3405535501        0.7571960638
 H          2.9853149622       -1.8317469548        2.2488188003
 H          2.6771996901       -3.6513103782        0.7524559294
 H          1.0809094775       -4.9504340866       -0.6113194330
 H         -1.2264956501       -4.1699661419       -0.9055308831
 H         -2.9378825841       -2.1063223694        1.1177451765
 C         -3.1408747685       -2.5112361843       -0.9748299325
 C         -3.9392512526       -3.7658149343       -0.7897538557
 C         -4.6378653414       -2.4527126010       -0.9710999189
 H         -5.1493788821       -2.2616711417       -1.9025181378
 H         -5.1110017980       -1.9976170894       -0.1127796360
 H         -3.9764791260       -4.4785083890       -1.5998493660
 H         -3.9506667331       -4.2116533283        0.1933736857
 H         -2.6373454756       -2.3570679698       -1.9224866243
