  62
        -98.93796616
 C         -2.0130190130       -1.1780229599        0.7560200268
 C         -1.9498066212        0.2031943581        1.0769978562
 C         -3.1322267354        1.0054305397        0.7478378742
 C         -4.2036913463        0.4108929229        0.1930215736
 C         -5.5078968408        1.0771536564       -0.1532391026
 C         -5.5145325763        1.7780983963       -1.5183936663
 C         -4.7005973780        3.0706147915       -1.5875171386
 H         -4.9648330301        3.5670513705       -2.5233802390
 H         -5.0001645939        3.7312231390       -0.7732724825
 C         -3.1805965908        2.8603544039       -1.5516071039
 H         -2.9517291946        1.8166899073       -1.7804482943
 H         -2.7099877001        3.4669847954       -2.3288035964
 C         -2.5187339236        3.2316508747       -0.2247259580
 H         -1.4528749075        3.0042599126       -0.3078240063
 H         -2.6221059190        4.3050969794       -0.0513627547
 C         -3.0752901795        2.4829377572        0.9935948133
 H         -4.0637490861        2.8648198764        1.2484505768
 H         -2.4051052188        2.6528356465        1.8398713532
 H         -5.1507888083        1.0773431683       -2.2735647220
 H         -6.5538746586        2.0141988492       -1.7583674052
 H         -5.7692324523        1.7942319185        0.6257108202
 H         -6.2640129560        0.2890874707       -0.1681645611
 O         -4.2278724670       -0.9140346729       -0.1014217452
 C         -3.1278711019       -1.7376633564        0.1305372811
 O         -3.2969548223       -2.9070538540       -0.2577814893
 O         -0.9499223672        0.7350298485        1.6269490988
 C         -0.7768131450       -1.9933257480        1.0915895570
 C          0.2529115661       -1.8563221384       -0.0015053696
 C         -0.1045626749       -1.9759602420       -1.3404165489
 C          0.8424731900       -1.8265275300       -2.3376296781
 C          2.1634513681       -1.5606593742       -2.0212156251
 C          2.5307015516       -1.4365163806       -0.6879980814
 C          1.5768147450       -1.5845560398        0.3122453236
 H          1.8655494463       -1.4689402950        1.3482224733
 N          3.8787283500       -1.1682105292       -0.3709025612
 S          4.5071843393        0.3241557342       -0.8039370821
 O          4.1917322011        0.5783446817       -2.1853357734
 O          5.9087329660        0.2739839139       -0.4587506603
 C          3.6734679600        1.4913537525        0.2563123938
 C          2.3362378012        1.7555056230        0.0337120089
 C          1.6685540840        2.6002819429        0.9055100976
 C          2.3472929673        3.1697633812        1.9718000526
 C          3.6920083312        2.9009646482        2.1769357201
 C          4.3619919245        2.0454127711        1.3174722007
 H          5.4041000238        1.7989729916        1.4426811471
 H          4.2158801204        3.3476115407        3.0068280719
 H          1.8190621876        3.8234350173        2.6478044523
 H          0.6156140128        2.7843712246        0.7675240911
 H          1.8348537667        1.2990287728       -0.8051716247
 H          4.1076720830       -1.3499553671        0.5967578060
 H          2.9090204322       -1.4267618004       -2.7874411042
 H          0.5504392131       -1.9219341450       -3.3727484323
 H         -1.1341168153       -2.1890506755       -1.5899426807
 H         -0.3584373423       -1.5149079986        1.9920599408
 C         -1.0690197283       -3.4434628586        1.4450573374
 C         -0.7598697424       -4.5914133056        0.5369057369
 C          0.0555530567       -4.3800911620        1.7750640038
 H         -0.0674831847       -5.0643182053        2.6007341941
 H          1.0638467983       -4.0153714982        1.6485819451
 H         -1.4655842170       -5.4070573587        0.5054889900
 H         -0.3033323488       -4.3788907071       -0.4171422632
 H         -1.9698327743       -3.5379074884        2.0423722382
