  62
        -98.93929849
 C          2.5800358096        0.1417545391       -0.4369680153
 C          2.3176004280        0.7996926619        0.7864065154
 C          1.8029838576        2.1783226014        0.6952472460
 C          1.5812235712        2.7113921968       -0.5186719595
 C          0.9717217742        4.0474422093       -0.8448654058
 C         -0.5559815948        3.9228457136       -0.9885004259
 C         -1.3402221821        4.1566067398        0.3004050965
 H         -1.2412455350        5.2025491036        0.6003776623
 H         -2.3928007432        3.9724499939        0.0739533411
 C         -0.9266211317        3.2584240543        1.4681054156
 H         -1.7530736415        3.2337224342        2.1815961959
 H         -0.7828571265        2.2402236024        1.1003700752
 C          0.3361571045        3.7496680354        2.1903929947
 H          0.5610110495        4.7665167289        1.8686959547
 H          0.1419704624        3.8004047266        3.2641662063
 C          1.5759897361        2.8651495187        2.0152172144
 H          2.4687760374        3.4558942769        2.2502176458
 H          1.5430628941        2.0492143036        2.7445609897
 H         -0.8992386757        4.6432301302       -1.7344428410
 H         -0.7819285750        2.9213750164       -1.3662943679
 H          1.2380098319        4.7888556662       -0.0971829923
 H          1.3912287970        4.3517171207       -1.8061787104
 O          1.8487652535        2.0404507053       -1.6753369512
 C          2.3305292501        0.7465066115       -1.6664018203
 O          2.5030786710        0.2489388528       -2.8006836975
 O          2.4952078839        0.2576224027        1.9099332946
 C          3.0108652786       -1.3137052626       -0.4338357307
 C          1.9431920932       -2.1437017489        0.2418583142
 C          2.2155692025       -3.2260630385        1.0673973747
 C          1.1785289659       -3.9279816375        1.6597705963
 C         -0.1386628063       -3.5585931889        1.4618684848
 C         -0.4213188773       -2.4717470178        0.6390309909
 C          0.6159586022       -1.8038134575        0.0133052591
 H          0.3882918513       -0.9830157121       -0.6504875865
 N         -1.7412227467       -2.0190645846        0.4792251683
 S         -2.1524041630       -0.8658116664       -0.6704563499
 O         -1.9573329434       -1.3901252185       -2.0068200467
 O         -1.4916121130        0.3752242847       -0.3613308615
 C         -3.8943659908       -0.7179660427       -0.3243234003
 C         -4.2956866943        0.1475154147        0.6753765714
 C         -5.6452450051        0.2476051218        0.9737199414
 C         -6.5659820403       -0.5162632483        0.2718164922
 C         -6.1488861254       -1.3784007793       -0.7311278234
 C         -4.8002738680       -1.4832127136       -1.0339273104
 H         -4.4311829886       -2.1302727885       -1.8134475886
 H         -6.8674306771       -1.9675375106       -1.2777782832
 H         -7.6157890839       -0.4363293374        0.5056720130
 H         -5.9728652127        0.9196651822        1.7503584774
 H         -3.5427221052        0.7256687042        1.1859707615
 H         -2.4437167092       -2.7367676009        0.5819531159
 H         -0.9411829876       -4.0943061999        1.9445209244
 H          1.4021421079       -4.7709669228        2.2959533974
 H          3.2371865356       -3.5167637617        1.2507430398
 H          3.0633152163       -1.6178023525       -1.4907563205
 C          4.3804175713       -1.4738154427        0.1924502689
 C          5.3083903407       -2.5519519787       -0.2784181322
 C          5.5901055669       -1.1199453025       -0.6175417861
 H          6.4125275275       -0.6224081314       -0.1261702538
 H          5.4241984079       -0.7902924575       -1.6333110312
 H          5.9434654785       -3.0383278873        0.4465703510
 H          4.9631956875       -3.1991259142       -1.0707425631
 H          4.3866031172       -1.2114451427        1.2438723904
