  62
        -98.93948313
 C         -2.4226061424       -0.9300659740       -0.6410739919
 C         -3.6532263590       -0.8865699973        0.0675031795
 C         -4.4938251991        0.2928341946       -0.1578520016
 C         -4.0874444810        1.2439818426       -1.0177282289
 C         -4.8381103755        2.4983397935       -1.3732045802
 C         -4.6310929990        3.6503359479       -0.3802724408
 C         -5.3303365317        3.4796168372        0.9689815557
 H         -5.2858856195        4.4449609839        1.4770835345
 H         -6.3828268304        3.2466063425        0.8046863199
 C         -4.7013698711        2.4150123793        1.8788776880
 H         -3.6935843205        2.1820682376        1.5267140615
 H         -4.6006429703        2.8139359601        2.8907906403
 C         -5.5007988630        1.1160296486        1.9827143588
 H         -4.9449480670        0.4226591274        2.6190752205
 H         -6.4627643199        1.3144740452        2.4605480509
 C         -5.7570443613        0.4227533547        0.6382153577
 H         -6.1298718929       -0.5849270456        0.8372746142
 H         -6.5100493991        0.9688476835        0.0704126863
 H         -3.5588873341        3.7850748934       -0.2201450794
 H         -5.0138615167        4.5587390725       -0.8510895632
 H         -4.4688684538        2.8153059730       -2.3508672480
 H         -5.9022140061        2.2766327478       -1.4585611049
 O         -2.9152796571        1.1559216582       -1.6969954621
 C         -2.0462692067        0.0890702749       -1.5157125044
 O         -1.0046620316        0.1840197576       -2.1963915370
 O         -4.0341893889       -1.7998220781        0.8469178986
 C         -1.5378579494       -2.1412271588       -0.3954914675
 C         -0.4024800787       -1.8009800446        0.5413606712
 C         -0.3863217168       -2.2961939239        1.8401673341
 C          0.6539223191       -1.9878063898        2.6994280061
 C          1.6943405792       -1.1754139823        2.2859342753
 C          1.6847550208       -0.6705218644        0.9917668485
 C          0.6465377866       -0.9916990097        0.1281596138
 H          0.6350432741       -0.5835691769       -0.8717285409
 N          2.7180576691        0.1915668298        0.5619054395
 S          4.2982317441       -0.3958910412        0.6773535821
 O          4.4415693393       -1.6122183819       -0.0941466920
 O          4.6499030988       -0.4913822984        2.0713981413
 C          5.2058842439        0.9327438956       -0.0861375066
 C          5.4262878458        2.0846879229        0.6445055330
 C          6.1095221687        3.1333966478        0.0502159774
 C          6.5589149878        3.0131585711       -1.2566239258
 C          6.3316575124        1.8499221275       -1.9762412995
 C          5.6468236530        0.7978706254       -1.3882880391
 H          5.4527855020       -0.1269888995       -1.9077807009
 H          6.6841904225        1.7582275496       -2.9910422213
 H          7.0914539634        3.8304561531       -1.7169086771
 H          6.2900657320        4.0391036624        0.6064359839
 H          5.0658467108        2.1304983701        1.6587876841
 H          2.5521765527        0.4989784831       -0.3885416209
 H          2.5139543505       -0.9353050593        2.9431114644
 H          0.6543267899       -2.3821366556        3.7045726935
 H         -1.2026508302       -2.9193550172        2.1764469353
 H         -2.1854244816       -2.8642770141        0.1186395870
 C         -1.0307385475       -2.7800324376       -1.6734977508
 C         -0.5416518715       -4.1955440692       -1.6315231193
 C         -1.8330618542       -3.8683869208       -2.3181287868
 H         -1.8711050227       -3.9100381518       -3.3962975743
 H         -2.7548075628       -4.1618464022       -1.8372236691
 H          0.3115932545       -4.4637904332       -2.2355663430
 H         -0.5868388106       -4.7110353468       -0.6839861143
 H         -0.5175489489       -2.0897777790       -2.3301922950
