  62
        -98.94122314
 C         -2.6178746901       -1.1828886905        0.4098096002
 C         -2.4550519103       -0.4157865899       -0.7711358094
 C         -3.2128184705        0.8452121300       -0.8259685388
 C         -3.9892959805        1.2005856393        0.2127013315
 C         -4.7579302908        2.4855554691        0.3128294722
 C         -3.9214817809        3.5764500790        0.9964811826
 C         -2.5106563810        3.7244437695        0.4252310826
 H         -2.0238956111        4.5405851093        0.9640511930
 H         -1.9376879208        2.8179586695        0.6373156421
 C         -2.4619005011        4.0079993102       -1.0826334472
 H         -3.4331725112        4.3694334702       -1.4228694770
 H         -1.7358888113        4.8031739305       -1.2649616669
 C         -2.0365793910        2.8149156307       -1.9410501979
 H         -1.1023248209        2.3963933007       -1.5544345681
 H         -1.8312088511        3.1804399513       -2.9509244477
 C         -3.0639022908        1.6821591306       -2.0649446183
 H         -4.0278387409        2.0927695006       -2.3724747481
 H         -2.7117698807        1.0028457611       -2.8467707487
 H         -4.4514623311        4.5261890189        0.9066156831
 H         -3.8361734608        3.3335919184        2.0582354525
 H         -5.0498180809        2.8077901496       -0.6845747777
 H         -5.6562068307        2.3048641987        0.9054842621
 O         -4.1151301803        0.4431700888        1.3323986711
 C         -3.4149469101       -0.7450624312        1.4699561005
 O         -3.5771082499       -1.3079329118        2.5714050202
 O         -1.7194265303       -0.7513001293       -1.7341343196
 C         -1.8482129598       -2.4749659005        0.6316764695
 C         -0.4024758599       -2.2656635700        0.2504537995
 C          0.2746962802       -3.0313728894       -0.6881196909
 C          1.5957604701       -2.7533426791       -0.9948620909
 C          2.2683832900       -1.7160123592       -0.3760743404
 C          1.5988988999       -0.9410228098        0.5621317800
 C          0.2801316400       -1.2280086802        0.8744084300
 H         -0.2436210601       -0.6190950307        1.6031652803
 N          2.2724289297        0.1161045000        1.2019383505
 S          3.0605907695        1.2459573806        0.2383012810
 O          3.0898454493        2.4566249602        1.0313498516
 O          2.4597821394        1.3487436111       -1.0704657189
 C          4.7143124396        0.5990639810        0.1097355106
 C          5.2608881895        0.3409145517       -1.1318529896
 C          6.5512893596       -0.1609316780       -1.2042684199
 C          7.2680525297       -0.3928956485       -0.0403667601
 C          6.7053907898       -0.1254824792        1.1989487101
 C          5.4163574997        0.3764648805        1.2781576804
 H          4.9431966497        0.6015715800        2.2193422206
 H          7.2659714699       -0.3066146895        2.1018399800
 H          8.2713500398       -0.7842596783       -0.0995212203
 H          6.9904501096       -0.3690431975       -2.1667172300
 H          4.6635363294        0.5327841620       -2.0091611794
 H          1.7107495597        0.5863310295        1.8973739808
 H          3.2937510799       -1.4912927789       -0.6205805003
 H          2.1079649802       -3.3515278486       -1.7330266512
 H         -0.2391388297       -3.8270170893       -1.2016867213
 H         -1.8846172197       -2.6400901610        1.7216833594
 C         -2.4757249097       -3.7034409603       -0.0089014710
 C         -3.9523351097       -3.7740605804       -0.2570182110
 C         -3.0012299697       -3.7004663197       -1.4116708510
 H         -2.8590274096       -4.5868747894       -2.0126388915
 H         -2.9326470700       -2.7796687994       -1.9683125706
 H         -4.4601305795       -4.7071206606       -0.0639215014
 H         -4.5418842698       -2.8997301007       -0.0211558505
 H         -2.0048430695       -4.6200109704        0.3330046485
