  62
        -98.94522175
 C         -1.5792796265       -0.2934410833       -0.6144020942
 C         -2.8475570692       -0.9143760228       -0.7453553162
 C         -3.8553944136       -0.5452398304        0.2536104693
 C         -3.5296699968        0.3034667046        1.2452303436
 C         -4.4321904964        0.7470297788        2.3646078647
 C         -5.3541615821        1.9182622771        1.9984662417
 C         -6.5076266479        1.5678373861        1.0576203777
 H         -7.0514782502        0.7107081045        1.4559124897
 H         -7.1925366332        2.4180768263        1.0604802300
 C         -6.0800558032        1.2828394851       -0.3888824288
 H         -6.7430044430        1.8136256314       -1.0757613396
 H         -5.0719687430        1.6700334732       -0.5532635953
 C         -6.1116117163       -0.1945952873       -0.7799937555
 H         -5.7579869180       -0.2838421132       -1.8102065679
 H         -7.1397195706       -0.5614889544       -0.7437832312
 C         -5.2396140384       -1.0997473706        0.1001201502
 H         -5.1548551277       -2.0742623402       -0.3868953480
 H         -5.7045100358       -1.2364927980        1.0763592522
 H         -4.7496291828        2.7127590915        1.5549762941
 H         -5.7764587905        2.3029374696        2.9297088171
 H         -5.0320323470       -0.0966720388        2.7074348940
 H         -3.7796111611        1.0635482228        3.1813945642
 O         -2.2939866901        0.8570633234        1.3549846877
 C         -1.2940428525        0.5890661318        0.4283482488
 O         -0.2333686227        1.2029739461        0.6469085171
 O         -3.1234337985       -1.7408729550       -1.6556707550
 C         -0.5031242941       -0.6680789678       -1.6218644000
 C          0.4571232829       -1.6182090301       -0.9474817997
 C          0.0892373182       -2.9526889415       -0.7919850335
 C          0.9297096279       -3.8447226743       -0.1548029827
 C          2.1471030457       -3.4217316989        0.3510645848
 C          2.5197561890       -2.0909661631        0.2097489502
 C          1.6807267600       -1.2012459770       -0.4478478424
 H          1.9801719837       -0.1735398476       -0.5493922995
 N          3.7551890801       -1.6310424505        0.6958276867
 S          3.7911989429       -0.2241612519        1.6174904826
 O          5.0327604832       -0.3257222038        2.3592652731
 O          2.5935798144       -0.0852843250        2.4111393276
 C          3.9543427136        1.0851183957        0.4235331593
 C          2.9464921486        2.0148799529        0.2628882975
 C          3.1117873699        3.0159058273       -0.6829060049
 C          4.2710745271        3.0711069604       -1.4410153419
 C          5.2748455815        2.1307370627       -1.2619303711
 C          5.1177348171        1.1271623611       -0.3202255538
 H          5.8738553838        0.3807627560       -0.1426437942
 H          6.1747799237        2.1765821197       -1.8537195764
 H          4.3904738892        3.8514917116       -2.1762355419
 H          2.3269119687        3.7424914162       -0.8234450247
 H          2.0445071698        1.9265656574        0.8494047765
 H          4.3217079233       -2.3477141030        1.1276870845
 H          2.8030639284       -4.1158576267        0.8549866850
 H          0.6346997543       -4.8775442383       -0.0447286961
 H         -0.8695391385       -3.2766139719       -1.1721707929
 H         -1.0297292251       -1.2295908935       -2.4063325038
 C          0.1703914775        0.5338060302       -2.2487022306
 C          1.0396849315        0.3376708921       -3.4537631838
 C         -0.2872338895        1.0203007520       -3.5896649393
 H         -0.3052043414        2.0842751351       -3.7717022034
 H         -1.0911979434        0.4822853080       -4.0705038341
 H          1.9370964769        0.9306316492       -3.5416218597
 H          1.1347536320       -0.6660250547       -3.8395780760
 H          0.4708370418        1.2837309299       -1.5283846603
