  62
        -98.94523019
 C          1.6046663698        0.2187521954       -0.6087181638
 C          2.8770792500        0.7335754820       -0.9609603944
 C          3.9294426169        0.6121732814        0.0557114117
 C          3.6279647320        0.0717509924        1.2504391671
 C          4.6104848453       -0.1509521095        2.3628151396
 C          5.2503185608       -1.5432924929        2.2691414218
 C          5.7890114438       -1.8834746519        0.8795124911
 H          6.2443238350       -2.8742260945        0.9412318669
 H          4.9520492641       -1.9568602923        0.1815162914
 C          6.8162544611       -0.8817159823        0.3340126587
 H          7.2175382122       -0.2805306958        1.1506953097
 H          7.6505156101       -1.4369519543       -0.0997970146
 C          6.2801550253        0.0433267273       -0.7601425050
 H          5.7938839987       -0.5518914852       -1.5370093541
 H          7.1305174065        0.5521273752       -1.2218336169
 C          5.2973355656        1.1258792620       -0.2964355372
 H          5.7278868306        1.6800626740        0.5401946531
 H          5.1508398438        1.8202700175       -1.1289489039
 H          6.0593390127       -1.6006290152        2.9996339888
 H          4.4973401073       -2.2881811265        2.5368475067
 H          5.3797358463        0.6177988444        2.3204476679
 H          4.0785765792       -0.0675733317        3.3122379314
 O          2.3885726818       -0.3813394142        1.5658605912
 C          1.3467625070       -0.3278370861        0.6490648577
 O          0.2758521401       -0.8004478164        1.0729914929
 H         -2.0891497230        0.0621365369       -0.6712877297
 C         -1.7525092458        1.0828445179       -0.6818835727
 C         -0.4852691710        1.3891312731       -1.1492455790
 C         -0.0792577899        2.7219543629       -1.1561936838
 C         -0.9240087502        3.7176867683       -0.7067584317
 C         -2.1845344598        3.4042525733       -0.2259996493
 C         -2.5965302423        2.0784644075       -0.2077811366
 N         -3.8753343848        1.7192102426        0.2551347235
 S         -3.9864559287        0.5251433014        1.4366958946
 O         -5.3068198010        0.7163092347        2.0033274007
 O         -2.8860553030        0.6039603126        2.3681235744
 C         -3.9730036044       -1.0076261568        0.5333816988
 C         -2.9241110122       -1.8932410113        0.6838759175
 C         -2.9455349058       -3.0760549683       -0.0398644599
 C         -4.0042691264       -3.3495907092       -0.8923123663
 C         -5.0503697998       -2.4489584005       -1.0279565204
 C         -5.0381825201       -1.2658587157       -0.3073524907
 H         -5.8321424809       -0.5411307371       -0.3764886673
 H         -5.8707458684       -2.6649113337       -1.6931826516
 H         -4.0110545470       -4.2700143092       -1.4550173875
 H         -2.1278786496       -3.7722503895        0.0625259151
 H         -2.0996313242       -1.6318033140        1.3299579966
 H         -4.4547922417        2.5073375354        0.5097268025
 H         -2.8429152553        4.1806427819        0.1344802632
 H         -0.5986645744        4.7471820589       -0.7226951837
 H          0.9105334004        2.9633139111       -1.5184890778
 C          0.4801403305        0.3313501080       -1.6258295508
 H          0.9582186755        0.7028571183       -2.5434031830
 C         -0.1681925544       -1.0053524145       -1.9141711135
 C         -1.0470545976       -1.1568719165       -3.1187209443
 C          0.2983179993       -1.8157354948       -3.0844393787
 H          0.3460619745       -2.8891273513       -2.9801399083
 H          1.0858765934       -1.4019383414       -3.6972713373
 H         -1.1722384778       -0.2935455514       -3.7544062641
 H         -1.9274417348       -1.7760367711       -3.0363738014
 H         -0.4447655258       -1.5454535905       -1.0172640858
 O          3.1204990942        1.2703027435       -2.0751605519
