  62
        -98.93452698
 C         -2.2748842019       -1.1096813475        0.1108207644
 C         -3.5261062992       -1.0453578978        0.7786774640
 C         -4.5259166452       -0.1221463413        0.2230366038
 C         -4.2027586212        0.6185291728       -0.8520148347
 C         -5.0752000550        1.6635486974       -1.4873837460
 C         -5.0527322212        2.9532311559       -0.6422602446
 C         -6.3942540598        3.3110020510       -0.0018965806
 H         -6.2063739960        4.0986006726        0.7309331234
 H         -7.0536168051        3.7243952864       -0.7680045611
 C         -7.1359214239        2.1588679221        0.6826725147
 H         -7.6455880304        1.5530637720       -0.0680266189
 H         -7.9155266053        2.6069117133        1.3023748910
 C         -6.2792343928        1.2363383753        1.5593583372
 H         -5.3841012604        1.7549190199        1.9035054060
 H         -6.8585115650        0.9781863240        2.4481519932
 C         -5.8737894687       -0.0896878675        0.8891606347
 H         -5.8246797858       -0.8673789603        1.6569976682
 H         -6.6429748708       -0.3854179172        0.1702376317
 H         -4.2942309267        2.8397295596        0.1353782365
 H         -4.7369786269        3.7909979090       -1.2659718471
 H         -6.0908537191        1.2859488355       -1.5834653173
 H         -4.6776390338        1.8559182911       -2.4841960544
 O         -2.9863249501        0.5523519295       -1.4496675867
 C         -1.9902142574       -0.3046163177       -0.9935279540
 O         -0.9407701942       -0.2415717452       -1.6609890142
 O         -3.7954616899       -1.7347179933        1.7981789680
 C         -1.2336820119       -2.0536860289        0.6893240988
 C          0.0653755554       -1.3201069873        0.8983819677
 C          0.2175841283       -0.5014207348        2.0134140692
 C          1.3812829197        0.2191268991        2.2051963030
 C          2.4117108120        0.1480164893        1.2837957766
 C          2.2595843276       -0.6480079877        0.1569553954
 C          1.1007768384       -1.3932074658       -0.0189758780
 H          0.9874431324       -2.0006173523       -0.9033361511
 N          3.2919011733       -0.7209521710       -0.7919172533
 S          4.1027014167        0.6794398523       -1.2323337011
 O          3.2763548031        1.8574703026       -1.1085934171
 O          4.6388354905        0.4031594199       -2.5477407214
 C          5.4525399224        0.7569667351       -0.0703655119
 C          5.6878857305        1.9204752385        0.6354823880
 C          6.7507251892        1.9630916804        1.5246296852
 C          7.5564843079        0.8473069010        1.6906311166
 C          7.3091199816       -0.3128567548        0.9719653677
 C          6.2491991461       -0.3612372211        0.0808017496
 H          6.0256805875       -1.2416059084       -0.4980454840
 H          7.9379106030       -1.1786584092        1.1035818214
 H          8.3818253902        0.8821998729        2.3841040739
 H          6.9444891017        2.8648647552        2.0830339010
 H          5.0316483816        2.7619023436        0.4778932421
 H          3.0477057891       -1.2631843904       -1.6081798039
 H          3.3152024229        0.7197930773        1.4184723864
 H          1.4880234306        0.8462268276        3.0773482039
 H         -0.5940750982       -0.4297675974        2.7243433956
 H         -1.6358912867       -2.3233359055        1.6790648313
 C         -1.0606275298       -3.3587159297       -0.0738012087
 C         -2.2528005911       -4.0719876245       -0.6362222640
 C         -1.2312687981       -3.4786240267       -1.5572736765
 H         -0.5740480546       -4.1497514332       -2.0915364328
 H         -1.4894209896       -2.5912743550       -2.1136663141
 H         -2.3041021937       -5.1463286501       -0.5447419164
 H         -3.2100438507       -3.5783267415       -0.5521416885
 H         -0.2926288219       -3.9821307694        0.3744204523
