  62
        -98.93924548
 C          2.0969166856        0.8087399230        0.0106203309
 C          2.2974198228       -0.1976094289        0.9803896971
 C          2.1771229980       -1.5918601296        0.5227353153
 C          1.8857339533       -1.8375273662       -0.7685983474
 C          1.6084079227       -3.1351034716       -1.4997154857
 C          1.9312276566       -4.4811455647       -0.8570016964
 C          3.4235591721       -4.7624562955       -0.6835927209
 H          3.5332891729       -5.6922271273       -0.1215074076
 H          3.8638492316       -4.9152961041       -1.6719250056
 C          4.2223953542       -3.6630789410        0.0113928240
 H          5.2665438591       -3.9840881014        0.0543290353
 H          4.1887685284       -2.7510387911       -0.5878164890
 C          3.7791177214       -3.3352746102        1.4356027499
 H          3.7686375790       -4.2462477781        2.0370290777
 H          4.5229603827       -2.6588168850        1.8648003016
 C          2.4068876739       -2.6510249907        1.5626703165
 H          2.3701034839       -2.1398383409        2.5294920271
 H          1.5962557875       -3.3766628042        1.5531015902
 H          1.4093111966       -4.5770268970        0.0906811063
 H          1.5244706856       -5.2484522179       -1.5213456618
 H          0.5371620582       -3.1048212049       -1.7313229939
 H          2.1334446448       -3.0581687415       -2.4574029457
 O          1.7375164369       -0.8308245453       -1.6787188344
 C          1.8001919948        0.5016370900       -1.3160651509
 O          1.5996314767        1.3002689291       -2.2519162440
 O          2.5468694294        0.0582504359        2.1915761515
 C          2.0649546979        2.2636371235        0.4429477101
 C          0.6890393561        2.8151815407        0.1542253397
 C          0.4574112529        4.0558874752       -0.4244471132
 C         -0.8345989835        4.4593849357       -0.7171767987
 C         -1.9134841169        3.6340923887       -0.4598815193
 C         -1.6925860804        2.3990443011        0.1402872348
 C         -0.4037909380        2.0163663932        0.4670548631
 H         -0.2469744102        1.0548256069        0.9352661695
 N         -2.7574945925        1.5272729555        0.4328167362
 S         -2.4630308285       -0.1327646481        0.2974270131
 O         -1.8844909890       -0.6011769306        1.5330018182
 O         -1.7252376441       -0.4235530126       -0.9110984631
 C         -4.1346967489       -0.7411308163        0.1625090104
 C         -4.8936565530       -0.8539747273        1.3123207820
 C         -6.2022776235       -1.2982845692        1.2099845441
 C         -6.7275120955       -1.6203064326       -0.0328498242
 C         -5.9533173701       -1.5039583608       -1.1774617560
 C         -4.6440265452       -1.0584500389       -1.0822902689
 H         -4.0008579423       -0.9585926464       -1.9422317345
 H         -6.3623525078       -1.7581680119       -2.1419727476
 H         -7.7456982475       -1.9673720456       -0.1098500980
 H         -6.8060377829       -1.3928289855        2.0979999772
 H         -4.4376123001       -0.6020450822        2.2554422650
 H         -3.6146707559        1.7883710330       -0.0360918739
 H         -2.9158442848        3.9378510094       -0.7208169888
 H         -1.0008246655        5.4227714515       -1.1749535831
 H          1.2885015402        4.6992717809       -0.6629335259
 H          2.2151940478        2.2515568699        1.5332411659
 C          3.1839795877        3.0550309770       -0.1991564158
 C          3.7597935265        4.2513090716        0.4967734957
 C          4.5558050437        2.9858370521        0.3997247891
 H          5.4067768813        2.9582543203       -0.2640272820
 H          4.6762105644        2.3850710516        1.2894847242
 H          4.0689454071        5.0955785042       -0.1006701723
 H          3.3467634607        4.5162225905        1.4582915995
 H          3.1086586050        3.0738069566       -1.2806118397
