  62
        -98.94185082
 C         -1.1644965961       -1.4940983556        0.5217832327
 C         -2.1119090166       -1.1786945222       -0.4779610942
 C         -3.1679553168       -0.2133054336       -0.1116553311
 C         -3.1651400705        0.3139455656        1.1265831252
 C         -4.1041574817        1.3413099384        1.6993255411
 C         -3.7823546598        2.7645272172        1.2127299229
 C         -3.4440197474        2.8785772757       -0.2718692764
 H         -3.1140868752        3.9046772622       -0.4576115163
 H         -2.5918223546        2.2324838744       -0.4954356401
 C         -4.5939737069        2.5759143832       -1.2301145598
 H         -5.4025116788        3.2882799928       -1.0492928295
 H         -4.2225238309        2.7449529273       -2.2441657420
 C         -5.1738780523        1.1621381550       -1.1630354416
 H         -5.8020021258        1.0418389295       -0.2845662756
 H         -5.8272442965        1.0388125110       -2.0319149532
 C         -4.1416578795        0.0410849755       -1.2366491186
 H         -4.6698903217       -0.9073596863       -1.3946209533
 H         -3.5258479598        0.1819952903       -2.1324400564
 H         -2.9140261902        3.1238822122        1.7709305181
 H         -4.6290483286        3.4120221822        1.4477389772
 H         -5.1321146446        1.0740172516        1.4729913930
 H         -3.9822533959        1.3103235853        2.7843955642
 O         -2.2196960312       -0.0081443109        2.0548014533
 C         -1.1926597492       -0.8872183850        1.7754301178
 O         -0.3782837256       -1.0477271930        2.7091423767
 H          0.4977427899        0.1376548825       -0.2520748968
 C          1.0309083308       -0.4975729436       -0.9415586282
 C          0.8563220576       -1.8723574586       -0.8796541835
 C          1.5291645879       -2.6651602916       -1.8016918992
 C          2.3411899597       -2.0844110298       -2.7607080051
 C          2.5167820858       -0.7131216073       -2.8125321395
 C          1.8499665257        0.0879664361       -1.8926485974
 N          1.9842200510        1.4837985591       -1.9061952578
 S          1.9458858509        2.3465937141       -0.4753507657
 O          0.6077824742        2.3894442802        0.0580595947
 O          2.5275707932        3.6261189769       -0.8223951631
 C          3.0509057812        1.4654965344        0.6132501873
 C          2.5678208092        0.7034319613        1.6565811446
 C          3.4664092614       -0.0069556394        2.4381887545
 C          4.8237745614        0.0571403263        2.1676018011
 C          5.2953794949        0.8358105607        1.1209375333
 C          4.4026753336        1.5435271800        0.3342241577
 H          4.7294742937        2.1694340700       -0.4802181947
 H          6.3523190921        0.8900302383        0.9159678019
 H          5.5164013084       -0.5001399787        2.7783177378
 H          3.0873857818       -0.6085464582        3.2492003746
 H          1.5079036529        0.6627451218        1.8547301462
 H          2.6698846361        1.8456782102       -2.5518827107
 H          3.1515102237       -0.2646745269       -3.5610594839
 H          2.8512270315       -2.7106454208       -3.4767191994
 H          1.4112021569       -3.7360811410       -1.7738001497
 C         -0.0180039528       -2.4381465779        0.2154031220
 H          0.5887384011       -2.4830843442        1.1330941580
 C         -0.5362927145       -3.8281721201       -0.0936171579
 C          0.2542474821       -5.0386707634        0.3003537673
 C         -1.0025836095       -4.6920198352        1.0385290881
 H         -1.8777957552       -5.3069091358        0.8920867718
 H         -0.9166221399       -4.2873859803        2.0368832650
 H          0.2405033126       -5.8980753089       -0.3529950316
 H          1.1948487629       -4.8810440690        0.8062324115
 H         -1.1045050828       -3.8622327675       -1.0157508830
 O         -2.0804953545       -1.6707223282       -1.6371726419
