  62
        -98.93992880
 C         -1.6010873706       -1.2706388702        0.2431352793
 C         -1.6576106199        0.0760436197        0.6878110398
 C         -2.6774857396        0.9272542904        0.0637932602
 C         -3.4531546099        0.4124570811       -0.9073659899
 C         -4.5658703896        1.1461807718       -1.5972111695
 C         -5.9040401197        0.9289616922       -0.8771095594
 C         -5.8386591594        1.1659272516        0.6317553806
 H         -6.8452857794        1.0165634220        1.0284205407
 H         -5.1991857297        0.4047310912        1.0845907303
 C         -5.3313523987        2.5576772913        1.0343600211
 H         -5.4052406785        3.2385237616        0.1856456913
 H         -5.9775483684        2.9512549213        1.8218712213
 C         -3.9018077486        2.5779979304        1.5788354109
 H         -3.8010459589        1.8293309201        2.3685791807
 H         -3.7260773481        3.5572080901        2.0322116013
 C         -2.7899221788        2.3452967702        0.5478588707
 H         -2.9226847586        3.0296068106       -0.2924966490
 H         -1.8358700287        2.5676642396        1.0333705207
 H         -6.6469795394        1.5947853527       -1.3200888291
 H         -6.2265227102       -0.1007732876       -1.0482204298
 H         -4.3288045991        2.2076725817       -1.6317849791
 H         -4.6475667599        0.7673716622       -2.6173614696
 O         -3.3363472606       -0.8654820288       -1.3441702203
 C         -2.4107769809       -1.7433180395       -0.7901741308
 O         -2.4275997415       -2.8755624493       -1.3055077712
 H          1.7442931797       -1.1124155824        1.8669954590
 C          1.8322102494       -1.3825618720        0.8236808889
 C          0.7488919691       -1.9539671213        0.1744281588
 C          0.8646222788       -2.2613187509       -1.1783457413
 C          2.0464038189       -2.0166052012       -1.8529889213
 C          3.1269475392       -1.4456022919       -1.2014451713
 C          3.0128317295       -1.1174197223        0.1420925489
 N          4.0949363999       -0.4960350631        0.7999420790
 S          4.6019476805        0.9651134269        0.1496483094
 O          5.3132841502        0.7126490270       -1.0775167507
 O          5.3539987609        1.6109335762        1.2011002496
 C          3.0946674708        1.8570358377       -0.1839396101
 C          2.5511392907        1.8261545684       -1.4519528000
 C          1.3419208610        2.4642404291       -1.6752849497
 C          0.7017493414        3.1172218590       -0.6339496194
 C          1.2610125115        3.1393211983        0.6338684206
 C          2.4663756913        2.4982551377        0.8647710402
 H          2.9338245414        2.4971561971        1.8365408102
 H          0.7575613919        3.6431667883        1.4431832808
 H         -0.2407286784        3.6105949795       -0.8113131191
 H          0.8999268109        2.4460894396       -2.6587175896
 H          3.0820296404        1.3133728485       -2.2370935803
 H          3.9389820100       -0.3823249534        1.7920150490
 H          4.0489871692       -1.2319996722       -1.7175348213
 H          2.1264591886       -2.2660547709       -2.9003161914
 H          0.0131063086       -2.6833475603       -1.6915040413
 C         -0.5532681809       -2.1486730809        0.9065932589
 H         -0.4293679506       -1.7221795314        1.9144697290
 C         -0.9695377316       -3.6018959308        1.0739492784
 C         -0.2282211222       -4.7529094009        0.4681874879
 C         -0.1471610919       -4.5079910715        1.9428559680
 H         -0.6528011821       -5.1858441215        2.6137654478
 H          0.7803678783       -4.1130032421        2.3304080281
 H         -0.8113462626       -5.5876738805        0.1101588277
 H          0.6464558679       -4.5467312411       -0.1282279721
 H         -2.0458372716       -3.7149004103        1.1421847585
 O         -0.8918738096        0.5370483690        1.5755262299
