  62
        -98.94293513
 C          2.6907512513        1.2119198455        0.1934961868
 C          2.7030105555        0.2845559943       -0.8762625502
 C          3.8514192605       -0.6301932885       -0.9097207675
 C          4.8127250517       -0.5353406112        0.0265102029
 C          6.0501063275       -1.3867125483        0.1154420921
 C          5.8308483599       -2.7301897209        0.8248131948
 C          5.0379736395       -3.7663603500        0.0270112704
 H          5.4826791572       -3.8793833394       -0.9622034525
 H          5.1484826277       -4.7212300442        0.5447791286
 C          3.5418166546       -3.4512678907       -0.1114352361
 H          3.2548568596       -2.7056183169        0.6337579268
 H          2.9592008801       -4.3512348662        0.0974597516
 C          3.1234358941       -2.9527066695       -1.4947033160
 H          2.0556273707       -2.7207987950       -1.4662050966
 H          3.2781469899       -3.7436740949       -2.2319281741
 C          3.8676071972       -1.6957576310       -1.9636696007
 H          4.8920890576       -1.9445171103       -2.2394415631
 H          3.3531251696       -1.3008372375       -2.8431052159
 H          6.8165140748       -3.1477444076        1.0429560525
 H          5.3307036725       -2.5438390606        1.7780272454
 H          6.4481614898       -1.5619023964       -0.8843467774
 H          6.7827393381       -0.8117708784        0.6859064041
 O          4.7745018500        0.3875611801        1.0247825160
 C          3.7070011462        1.2609151593        1.1483717012
 O          3.7786792694        2.0244998704        2.1328595566
 O          1.8102984267        0.2211160287       -1.7608206745
 C          1.5314414795        2.1808083171        0.3537574649
 C          0.2656576607        1.3910281151        0.5838985512
 C          0.1695578199        0.6172717619        1.7382554208
 C         -0.9584786216       -0.1381507930        1.9916278311
 C         -2.0143377311       -0.1454518378        1.0958945189
 C         -1.9299519834        0.6224931560       -0.0563364956
 C         -0.7982006869        1.3913834276       -0.3025822059
 H         -0.7478640104        1.9801290017       -1.2050310278
 N         -2.9901991100        0.6047255230       -0.9770062781
 S         -4.5518402716        0.8391079589       -0.4149483780
 O         -5.2941528198        1.3305879813       -1.5553477347
 O         -4.5692755685        1.6697079609        0.7670339228
 C         -5.1223320547       -0.7999376393       -0.0163642534
 C         -5.0123323362       -1.7837026938       -0.9795036388
 C         -5.4672940221       -3.0595447653       -0.6872156790
 C         -6.0256285746       -3.3277153080        0.5538667779
 C         -6.1322079083       -2.3282485711        1.5087378768
 C         -5.6772259195       -1.0502350406        1.2233684470
 H         -5.7330785215       -0.2437188189        1.9370387413
 H         -6.5664088488       -2.5385532924        2.4729809328
 H         -6.3794881055       -4.3216536828        0.7780550778
 H         -5.3849335045       -3.8397778519       -1.4267226736
 H         -4.5745959834       -1.5356207135       -1.9320523852
 H         -2.8162120455        1.1420398091       -1.8137123381
 H         -2.8957249743       -0.7366184242        1.2838408362
 H         -1.0172235516       -0.7310044828        2.8918821333
 H          0.9983858624        0.6190216812        2.4337686099
 H          1.7408189331        2.7558697206        1.2667938084
 C          1.4629435150        3.1373490197       -0.8173941531
 C          0.7326421543        4.4379414150       -0.6736534918
 C          2.2292191183        4.4225717989       -0.7516645025
 H          2.7028588887        4.7868570116       -1.6509213611
 H          2.7921312405        4.6210950501        0.1487913586
 H          0.1789767642        4.8177513787       -1.5192676785
 H          0.2755157725        4.6506247421        0.2811618917
 H          1.4242213942        2.6313558018       -1.7748638004
