  62
        -98.94075285
 C         -2.0092141081       -1.3334521935        0.3689100201
 C         -2.4946875133       -0.6318529690       -0.7626000645
 C         -3.7057712413        0.1763825319       -0.5434278268
 C         -4.2640823696        0.2206547505        0.6789963922
 C         -5.4645701008        1.0421725079        1.0478230085
 C         -5.0514964161        2.4291678142        1.5597992007
 C         -4.0477762713        3.1470099707        0.6570961131
 H         -3.1026765025        2.5985454531        0.6648275797
 H         -3.8530210628        4.1260294495        1.1005930057
 C         -4.5144821691        3.3270755568       -0.7942389899
 H         -4.2894159961        4.3480970176       -1.1095948820
 H         -5.5961793892        3.2009598145       -0.8536029195
 C         -3.8392541006        2.3918876047       -1.7994554655
 H         -2.7536876760        2.4459728754       -1.6804401896
 H         -4.0742880676        2.7489428406       -2.8057080851
 C         -4.2593303384        0.9183211135       -1.7271967467
 H         -3.8561787812        0.4165607744       -2.6117821508
 H         -5.3483782548        0.8439876981       -1.7554940482
 H         -4.6010450817        2.3137485901        2.5484712704
 H         -5.9496402127        3.0402680703        1.6654388941
 H         -6.1113058896        1.1418839215        0.1783929313
 H         -6.0092277593        0.5210469067        1.8370721416
 O         -3.7555120790       -0.4459155524        1.7468740724
 C         -2.6099667633       -1.2158805762        1.6246355426
 O         -2.2247609390       -1.7313312065        2.6934504816
 H          0.2309979674        0.1740707995        0.9452719422
 C          0.7214258639       -0.2123905965        0.0593374515
 C          0.3299244702       -1.4487195893       -0.4421132518
 C          0.9691211386       -1.9355983014       -1.5736968208
 C          1.9534077489       -1.1886168579       -2.1983239806
 C          2.3256114977        0.0490321373       -1.7087671794
 C          1.7004546851        0.5404678042       -0.5691283235
 N          2.0798754806        1.7926579882       -0.0558903498
 S          3.7145705816        2.1354189587        0.0439407427
 O          3.8371303425        3.0786071530        1.1336705212
 O          4.1960074210        2.5901365853       -1.2366107513
 C          4.4932212901        0.5861681439        0.4653525326
 C          4.1200431316       -0.0290554993        1.6439844913
 C          4.6876595081       -1.2491937006        1.9722719660
 C          5.6146360240       -1.8305084867        1.1203922033
 C          5.9834180948       -1.1974524102       -0.0561543653
 C          5.4169434727        0.0222657911       -0.3906148880
 H          5.6722613190        0.5473684400       -1.2965561969
 H          6.7060286962       -1.6508519208       -0.7152417521
 H          6.0515765623       -2.7824090294        1.3776593988
 H          4.4018186348       -1.7425072576        2.8875009448
 H          3.4004789840        0.4511954325        2.2879785441
 H          1.5959485401        2.0565707525        0.7891286220
 H          3.0749714618        0.6505618459       -2.1972047769
 H          2.4323263313       -1.5732022780       -3.0857118445
 H          0.6775657782       -2.8871914082       -1.9857173078
 C         -0.7565804622       -2.1908036093        0.2976732649
 H         -0.4310380484       -2.2994880335        1.3457087493
 C         -0.9919798251       -3.5998615485       -0.2257971715
 C         -2.3239626964       -4.2693298649       -0.0694190629
 C         -1.8365109939       -3.8797863215       -1.4310034011
 H         -1.5231608035       -4.6642598251       -2.1044349386
 H         -2.2973133047       -3.0392362030       -1.9245157092
 H         -3.1253255084       -3.6948106206        0.3726348748
 H         -2.3434319559       -5.3165060511        0.1929419988
 H         -0.1212087848       -4.2324826265       -0.0841585405
 O         -1.9577847231       -0.6681439837       -1.8987360735
