  62
        -98.93850565
 C         -2.0224859301       -1.0285675007       -0.0288344001
 C         -2.6782250702       -0.2195412409        0.9273764001
 C         -3.2974300604        1.0186864490        0.4278974602
 C         -3.1674048805        1.3409669592       -0.8705779798
 C         -3.6682303307        2.5701049692       -1.5875264596
 C         -5.0833850007        3.0609016889       -1.2527504995
 C         -6.0896091906        1.9531522887       -0.9079407797
 H         -6.9863319006        2.0873518587       -1.5155136996
 H         -5.6699865304        0.9769833788       -1.1566729998
 C         -6.5124017406        1.9674271985        0.5629441304
 H         -7.4600857905        1.4327517283        0.6611451303
 H         -6.6872782507        3.0017301884        0.8668549605
 C         -5.5262365404        1.3208627685        1.5348289903
 H         -5.5149819003        0.2378410586        1.3854852901
 H         -5.8871699305        1.5007187484        2.5502910503
 C         -4.0748311205        1.8182337488        1.4340466003
 H         -4.0352596907        2.8834301288        1.2189575004
 H         -3.5906775205        1.6411306787        2.3985845903
 H         -5.0373055509        3.7692751489       -0.4267593894
 H         -5.4367695908        3.6167194390       -2.1228516695
 H         -2.9540998208        3.3796465693       -1.4082199395
 H         -3.6083563006        2.3212783194       -2.6498695696
 O         -2.4861935103        0.5539336394       -1.7502357799
 C         -1.8949053401       -0.6376205105       -1.3612142700
 O         -1.3075419500       -1.2405432903       -2.2783107901
 O         -2.7320738101       -0.5112212311        2.1538006800
 C         -1.3543809398       -2.3137880606        0.4311506598
 C          0.1381905901       -2.1458958504        0.2896511798
 C          0.9401854303       -2.9477257601       -0.5099790003
 C          2.2939969102       -2.6825738199       -0.6314406803
 C          2.8742999700       -1.6213857899        0.0388746698
 C          2.0809648799       -0.8179948201        0.8479207599
 C          0.7295842600       -1.0886626704        0.9723327599
 H          0.1105449499       -0.4548183005        1.5964525900
 N          2.6667192297        0.2794046699        1.5235836201
 S          3.1104931195        1.5530498901        0.5107194402
 O          3.1730526193        2.7188081200        1.3663312204
 O          2.2321539095        1.6456185501       -0.6349095998
 C          4.7557887896        1.1156469804       -0.0068211699
 C          5.0005728696        0.8105179606       -1.3311697299
 C          6.2876543697        0.4612224609       -1.7099750599
 C          7.2998470197        0.4234898409       -0.7628882000
 C          7.0371740897        0.7349104307        0.5630768601
 C          5.7532310996        1.0857787805        0.9484877501
 H          5.5047177896        1.3412377303        1.9649512402
 H          7.8271936197        0.7048831608        1.2959799501
 H          8.2996721697        0.1498690711       -1.0608260300
 H          6.4932189097        0.2187332110       -2.7402025700
 H          4.1794039596        0.8476103606       -2.0293557499
 H          2.0684193497        0.6460542397        2.2521059601
 H          3.9270475300       -1.4111498797       -0.0564029002
 H          2.9047111303       -3.3099945097       -1.2623859404
 H          0.5029002504       -3.7702227402       -1.0512034404
 H         -1.5885748698       -2.3963179108        1.5026322598
 C         -1.9141823397       -3.5209791806       -0.2878190904
 C         -1.7856581794       -4.8804892007        0.3298643595
 C         -3.1225481295       -4.2063588409        0.2735946496
 H         -3.8647410695       -4.5848569910       -0.4130757105
 H         -3.5374365096       -3.8128990311        1.1902208396
 H         -1.6111483993       -5.7265410706       -0.3170609006
 H         -1.2921160594       -4.9476485507        1.2874837695
 H         -1.8439565397       -3.4374030205       -1.3659681203
