  62
        -98.93652114
 C         -1.7751643320       -0.9144213555        0.2207998397
 C         -3.0748912220       -1.0234706124        0.7762969847
 C         -3.8967424644        0.1926738385        0.7510761517
 C         -3.3784365971        1.3234271499        0.2381263317
 C         -4.1207014421        2.6200576146        0.0976533974
 C         -4.8175597077        2.7142534774       -1.2670341077
 C         -5.6395188826        1.4767990574       -1.6279166318
 H         -6.1090058278        1.6689182647       -2.5952209374
 H         -4.9653983194        0.6275386802       -1.7621839246
 C         -6.7187093609        1.1092094038       -0.5998191495
 H         -6.9228213678        1.9646624396        0.0451124332
 H         -7.6437476827        0.8762428107       -1.1314452672
 C         -6.3831827005       -0.1078018989        0.2643693617
 H         -6.0884005194       -0.9424171607       -0.3769638639
 H         -7.2904197047       -0.4085233228        0.7951969305
 C         -5.2865151593        0.1029713251        1.3158875368
 H         -5.5168134999        0.9860168659        1.9153398114
 H         -5.2863910653       -0.7701152371        1.9750132877
 H         -5.4635257194        3.5941211823       -1.2650469593
 H         -4.0548408206        2.8539544819       -2.0366873174
 H         -4.8536528399        2.7021046065        0.8978703423
 H         -3.4045334926        3.4385202929        0.1864142064
 O         -2.1194340701        1.3986947751       -0.2595692500
 C         -1.2900309805        0.2840364731       -0.3005822877
 O         -0.1757907848        0.5068474006       -0.8044915715
 H          1.6939943800       -1.6446923873       -0.8567587463
 C          1.6221327439       -1.6615685666        0.2143284958
 C          0.4180286920       -1.8858031286        0.8640491245
 C          0.4087001895       -1.8293161778        2.2595660872
 C          1.5580157187       -1.5691070268        2.9778432059
 C          2.7594508491       -1.3663948391        2.3215660983
 C          2.7863720272       -1.4153697021        0.9343135695
 N          4.0049470345       -1.2703885182        0.2460968857
 S          4.2046806299       -0.1718983575       -0.9999775905
 O          3.2616424056       -0.4364867447       -2.0533141123
 O          5.6042231616       -0.2880742635       -1.3523141763
 C          3.9275120629        1.4208879158       -0.2465684039
 C          2.6368886868        1.8675061735       -0.0489294361
 C          2.4479724197        3.0797449572        0.5987143967
 C          3.5386244456        3.8152770259        1.0354743413
 C          4.8284904320        3.3491956759        0.8289252498
 C          5.0266005906        2.1385960837        0.1860807802
 H          6.0101588957        1.7392075501       -0.0022063436
 H          5.6760789065        3.9233048060        1.1671928493
 H          3.3812204893        4.7568737156        1.5378580689
 H          1.4422386833        3.4370469888        0.7556899525
 H          1.8014800102        1.2824088794       -0.4009885891
 H          4.8092184981       -1.2219504184        0.8558919226
 H          3.6662899624       -1.1775241201        2.8759860445
 H          1.5212562143       -1.5291745401        4.0559136278
 H         -0.5264733050       -1.9926507967        2.7779335996
 C         -0.9090095328       -2.1678405408        0.2059122402
 H         -1.4412044980       -2.8603050659        0.8792629423
 C         -0.9794020960       -2.8301631520       -1.1632944975
 C         -0.2817487294       -2.3783522963       -2.4092265966
 C          0.0961556663       -3.6809632484       -1.7669593328
 H         -0.1983428787       -4.5948759082       -2.2617162428
 H          1.0446998287       -3.7463273425       -1.2581630288
 H         -0.8439672647       -2.4117184652       -3.3325532919
 H          0.3933401339       -1.5388377343       -2.3615597662
 H         -1.9957680362       -3.1858962314       -1.3234467390
 O         -3.5246594955       -2.0913274033        1.2731549163
