  62
        -98.94499107
 C         -1.8953476396        0.7083729807        0.1887920157
 C         -2.4722777776        0.1250596712       -0.9641023415
 C         -3.5461816820       -0.8444923192       -0.7217787156
 C         -3.8844326453       -1.1628603411        0.5411514568
 C         -4.9403034110       -2.1535526866        0.9507788516
 C         -6.3620203022       -1.5755634525        0.9761211925
 C         -6.9824726997       -1.3130637904       -0.3967507148
 H         -6.9051559224       -2.2134309312       -1.0071538766
 H         -8.0448317345       -1.1192929284       -0.2358822387
 C         -6.3725670041       -0.1229636875       -1.1505131779
 H         -5.8140515393        0.5034197616       -0.4511688767
 H         -7.1727989111        0.4947146761       -1.5642702317
 C         -5.4542678131       -0.5101790439       -2.3096708980
 H         -6.0328784560       -1.0252254907       -3.0797288044
 H         -5.0510866028        0.4062773142       -2.7479719424
 C         -4.2728176706       -1.4029956411       -1.9080248655
 H         -4.6193808216       -2.4154370252       -1.7013229397
 H         -3.5691437833       -1.4376874849       -2.7435465714
 H         -6.9946738531       -2.2912811561        1.5061841689
 H         -6.3518392434       -0.6491359858        1.5549502159
 H         -4.6833987626       -2.4808199894        1.9606500072
 H         -4.9095878217       -3.0187092954        0.2876360999
 O         -3.2687944754       -0.6185565479        1.6241338021
 C         -2.2748623972        0.3401485332        1.4798857039
 O         -1.8173219474        0.7691481971        2.5551528396
 O         -2.1001632107        0.3944208009       -2.1384924716
 C         -0.8001541974        1.7454455531        0.0166340329
 C          0.4830236751        1.2480500503        0.6352642787
 C          1.2565838685        1.9976776411        1.5106899286
 C          2.4168007679        1.4680609612        2.0505076438
 C          2.8362350153        0.1927969203        1.7222391373
 C          2.0819583795       -0.5569009347        0.8272428148
 C          0.9217007471       -0.0245613581        0.2877274664
 H          0.3328874128       -0.6120390972       -0.4060063463
 N          2.5093675728       -1.8456739939        0.4686682296
 S          4.1343824744       -2.0794015823        0.1477751471
 O          4.1803976874       -3.1880858942       -0.7798649907
 O          4.8520555390       -2.2664861462        1.3842660048
 C          4.6826296620       -0.5767812266       -0.6437788035
 C          5.6989795515        0.1667490668       -0.0794374744
 C          6.0912925945        1.3437184953       -0.6968176600
 C          5.4605623551        1.7564137736       -1.8599479167
 C          4.4433839976        0.9962590807       -2.4170431557
 C          4.0488697011       -0.1824697634       -1.8055705037
 H          3.2635868535       -0.7964706378       -2.2171731548
 H          3.9532017744        1.3181840844       -3.3218977569
 H          5.7623293997        2.6753325674       -2.3371789032
 H          6.8832906978        1.9354387178       -0.2670180826
 H          6.1589257458       -0.1895070879        0.8279205805
 H          1.9252194155       -2.2998744354       -0.2172033764
 H          3.7251331502       -0.2399449574        2.1516870581
 H          3.0005652747        2.0565380981        2.7415014535
 H          0.9458396236        2.9926921299        1.7823274354
 H         -0.6449420941        1.8245495421       -1.0697953994
 C         -1.2528850506        3.0909052854        0.5422215813
 C         -0.6937277947        4.3540707031       -0.0389260391
 C         -2.1083651402        3.9566345416       -0.3319572621
 H         -2.9099771034        4.5179148037        0.1243194653
 H         -2.3437100331        3.5862035649       -1.3191991166
 H         -0.5248937318        5.1936491826        0.6181991329
 H          0.0325035422        4.2602484234       -0.8318217853
 H         -1.4829436480        3.0687104503        1.6014243995
