  62
        -98.94446311
 C          1.7734768755        0.7186877396       -0.0016077408
 C          2.9447373950        1.2458572876        0.5936951166
 C          4.2059129584        0.9251261392       -0.0831825751
 C          4.1896491600        0.1910267346       -1.2107018756
 C          5.3913519648       -0.2040159246       -2.0256975322
 C          6.1054925512       -1.4617251887       -1.5117405661
 C          6.9027286710       -1.2749480987       -0.2201477443
 H          7.5213627242       -2.1657557335       -0.0943104527
 H          7.5758672966       -0.4241756301       -0.3301810185
 C          6.0396156080       -1.0922767228        1.0361194178
 H          5.0201981908       -1.4262857357        0.8284344080
 H          6.4257817684       -1.7251469947        1.8384052196
 C          5.9931782560        0.3393493101        1.5704580683
 H          6.9895342323        0.6386110640        1.9029762868
 H          5.3285393535        0.3600055049        2.4378888996
 C          5.4838055285        1.3745858827        0.5588523641
 H          5.2777607777        2.3046490597        1.0940651031
 H          6.2437126038        1.5668978773       -0.1980199362
 H          5.3632578636       -2.2512780327       -1.3719553487
 H          6.7939723559       -1.7884857742       -2.2945190112
 H          5.0290314810       -0.4030114880       -3.0365646270
 H          6.0970728826        0.6260769879       -2.0662763853
 O          3.0393927431       -0.2770108066       -1.7653659386
 C          1.8077915315       -0.0475020794       -1.1663634715
 O          0.8440849229       -0.5639791300       -1.7634082493
 H         -2.1438144353        0.1132559283        0.1624674253
 C         -1.5525302144       -0.5971689903        0.7148129601
 C         -0.2336438195       -0.3137158747        1.0332541650
 C          0.4967138125       -1.2583144359        1.7510671722
 C         -0.0717191588       -2.4614117358        2.1187491525
 C         -1.3825756817       -2.7489217352        1.7801855179
 C         -2.1255882326       -1.8098729723        1.0761317333
 N         -3.4712953792       -2.0542417406        0.7711117326
 S         -4.1594075313       -1.5192417248       -0.6563664918
 O         -5.3690015011       -2.3076701631       -0.7761025949
 O         -3.2455086359       -1.5923037390       -1.7708927854
 C         -4.6166038680        0.1703573781       -0.3312176974
 C         -5.2154248321        0.4803206037        0.8740016983
 C         -5.6123659702        1.7873219007        1.1067021040
 C         -5.4148082450        2.7549000866        0.1332297603
 C         -4.8160863189        2.4264731227       -1.0735515128
 C         -4.4115074821        1.1216526021       -1.3104750896
 H         -3.9288214749        0.8242954380       -2.2284170738
 H         -4.6620423645        3.1793045628       -1.8306398895
 H         -5.7256642085        3.7715310090        0.3153164529
 H         -6.0755976424        2.0478205317        2.0446079353
 H         -5.3561205638       -0.2980893577        1.6048478472
 H         -3.8063763603       -2.9724527310        1.0237848554
 H         -1.8268321787       -3.6923117925        2.0591609347
 H          0.5099242363       -3.1858066414        2.6690232530
 H          1.5226267589       -1.0355596283        2.0116324617
 C          0.4339072328        0.9862690161        0.6596524372
 H          0.6753624144        1.5237529212        1.5893503273
 C         -0.4235474793        1.8835484084       -0.2069056298
 C         -1.4218205663        2.8035127646        0.4284657453
 C         -0.1735931355        3.3608178604       -0.1850404106
 H         -0.2516996014        3.9095330739       -1.1114863499
 H          0.6057647824        3.7204725702        0.4708048467
 H         -2.3622314014        2.9709178918       -0.0740185928
 H         -1.4936317723        2.7904642503        1.5053398088
 H         -0.6720575372        1.4303068800       -1.1608535019
 O          2.9357005338        1.9462821590        1.6411071005
