  62
        -98.94534690
 C          2.4102687801        0.0895948610       -0.0707602783
 C          1.5033159364        0.5614044953        0.9059279796
 C          1.1496902236        1.9838354148        0.8264948393
 C          1.6571451417        2.7375224722       -0.1650485460
 C          1.4019134111        4.2027632071       -0.3961681296
 C         -0.0513960474        4.5688556704       -0.7559614576
 C         -0.8970558415        5.0237916516        0.4401375700
 H         -0.2309226779        5.3907428712        1.2221479049
 H         -1.5154836469        5.8692533929        0.1319329286
 C         -1.8400852731        3.9690673839        1.0266176316
 H         -2.1764776602        4.3279604344        2.0020500134
 H         -2.7201780207        3.8815079416        0.3849585070
 C         -1.2595060358        2.5632162512        1.1881070563
 H         -1.2211535143        2.0666277573        0.2154006794
 H         -1.9524644659        1.9817632546        1.8007715878
 C          0.1479316475        2.5088942476        1.8144044829
 H          0.4468533767        3.4918588339        2.1761914809
 H          0.1488901575        1.8141502909        2.6568661030
 H         -0.0071883424        5.3867871197       -1.4771044866
 H         -0.5219726502        3.7215847435       -1.2567624445
 H          1.7118984288        4.7613281528        0.4899789512
 H          2.0594568263        4.4893195485       -1.2194308221
 O          2.5176104867        2.2419737846       -1.0962114236
 C          2.8987701470        0.9112124528       -1.0841745139
 O          3.6695835735        0.5853308447       -2.0119915417
 H          0.6841724828       -0.9101790502       -1.6382850017
 C          0.5530527645       -1.8132910256       -1.0597752458
 C          1.5564847608       -2.2282941356       -0.1935029409
 C          1.3660254245       -3.4020947363        0.5250391220
 C          0.1887084016       -4.1193460514        0.3972154751
 C         -0.8285820842       -3.6726294544       -0.4264627516
 C         -0.6427326034       -2.5050703895       -1.1575496204
 N         -1.6532192738       -1.9898821035       -1.9968421885
 S         -2.2684088627       -0.4780151540       -1.6118784105
 O         -3.3289582715       -0.2521455556       -2.5709339847
 O         -1.2099209638        0.4985809265       -1.5970609425
 C         -2.9820665348       -0.6940117583        0.0094694147
 C         -4.3530319736       -0.8409006801        0.1058461624
 C         -4.9193643168       -1.0807466986        1.3468863980
 C         -4.1068790807       -1.1813984859        2.4664908487
 C         -2.7333763410       -1.0366322316        2.3515894302
 C         -2.1586409088       -0.7906425107        1.1133944821
 H         -1.0918702816       -0.6654327273        1.0139503932
 H         -2.0918546701       -1.1113967199        3.2150771790
 H         -4.5451055754       -1.3722604658        3.4334379173
 H         -5.9881296036       -1.1906670753        1.4364248788
 H         -4.9432453704       -0.7544090355       -0.7921647092
 H         -2.4238365787       -2.6284308541       -2.1418630019
 H         -1.7574043050       -4.2173776907       -0.5045314022
 H          0.0542569851       -5.0288686869        0.9623505901
 H          2.1378709447       -3.7519291540        1.1908814082
 C          2.7998905767       -1.3776232296       -0.0883702403
 H          3.3965182035       -1.5243086984       -1.0010904803
 C          3.6557584497       -1.7104805473        1.1166123257
 C          4.7076295931       -2.7741772411        1.0297181030
 C          5.1049162971       -1.3310220681        1.0978978138
 H          5.5528110011       -0.9586600396        2.0068775671
 H          5.4794522512       -0.8574163789        0.2016688908
 H          4.8881953539       -3.3934631179        1.8954048237
 H          4.8259078230       -3.2858505291        0.0864789366
 H          3.1198112185       -1.5917089684        2.0511283157
 O          1.0117272684       -0.1723530691        1.8042331407
