  62
        -98.94051627
 C         -0.6828610835       -1.4105146607        0.5204581439
 C         -1.2159040590       -0.8094282891       -0.6442002861
 C         -2.2693885513        0.1933323525       -0.4225713206
 C         -2.5725722104        0.5587566290        0.8356720825
 C         -3.6884372268        1.4864209261        1.2267929464
 C         -5.0301708451        0.7261801773        1.1835869600
 C         -6.0041384569        1.2234436265        0.1145123501
 H         -6.8030643558        0.4832773357        0.0335907203
 H         -6.4557009172        2.1578860332        0.4544543867
 C         -5.4096861479        1.4703268383       -1.2759172668
 H         -4.9015134639        2.4354383073       -1.2908059872
 H         -6.2503763853        1.5510393062       -1.9682509775
 C         -4.4440428519        0.3982000852       -1.7979685240
 H         -4.6418388741       -0.5618411965       -1.3206572541
 H         -4.6292810443        0.2660843533       -2.8657030797
 C         -2.9524924284        0.7513874396       -1.6391593609
 H         -2.3980075610        0.3366760582       -2.4855381688
 H         -2.8325291541        1.8359900782       -1.6647930354
 H         -4.8179969424       -0.3327198763        1.0205919364
 H         -5.5222954234        0.7998288482        2.1546594742
 H         -3.7177257071        2.3413433876        0.5551609670
 H         -3.4838831951        1.8380725844        2.2384044115
 O         -1.9419723517        0.0488469272        1.9273326104
 C         -1.0186602661       -0.9765978229        1.8017756381
 O         -0.5746270428       -1.4067839600        2.8864952553
 O         -0.8510467785       -1.1100188025       -1.8098048700
 C          0.2935023773       -2.5664803827        0.3975156718
 C          1.5341431218       -2.1323349489       -0.3425380479
 C          2.0304789536       -2.7852365686       -1.4628497247
 C          3.1863954991       -2.3363137621       -2.0776379624
 C          3.8707964696       -1.2401433202       -1.5873992928
 C          3.3879766327       -0.5868625349       -0.4579995253
 C          2.2254320913       -1.0315751841        0.1501857221
 H          1.8590461382       -0.5271372959        1.0331935563
 N          4.0834800005        0.5033368031        0.0823854597
 S          3.3083653725        1.7073098921        0.9252028938
 O          4.2592659681        2.8000560077        0.9264330903
 O          2.8979281037        1.2384608799        2.2250400899
 C          1.8906191207        2.1900646246       -0.0427591189
 C          2.0506609345        2.4097541604       -1.3965728126
 C          0.9768644497        2.8847583754       -2.1305156758
 C         -0.2278795829        3.1489915260       -1.4987944363
 C         -0.3750282435        2.9190995236       -0.1404411842
 C          0.6914819578        2.4281055420        0.5951902667
 H          0.6133395489        2.2246109139        1.6524103353
 H         -1.3106188316        3.1221109866        0.3550962211
 H         -1.0548011812        3.5400910800       -2.0701341793
 H          1.0838637188        3.0550573179       -3.1895202115
 H          3.0045236829        2.2169136760       -1.8594454023
 H          4.8598737777        0.8445750820       -0.4638211067
 H          4.7753172126       -0.8950215376       -2.0639391489
 H          3.5591477842       -2.8479437046       -2.9517846009
 H          1.5115500543       -3.6422273884       -1.8582935168
 H          0.5917879416       -2.8196854331        1.4257547997
 C         -0.4001217029       -3.7642569840       -0.2183074704
 C          0.0858415709       -5.1499409171        0.0787282183
 C         -1.2052741199       -4.6664187384        0.6659484130
 H         -2.1307078078       -5.0718046757        0.2851137891
 H         -1.2341602187       -4.4305902782        1.7202576837
 H          0.0440807434       -5.8914627437       -0.7046256115
 H          0.9350524970       -5.2507266328        0.7375995410
 H         -0.7911845650       -3.5580208035       -1.2078083913
