  62
        -98.93805580
 C         -2.6005861973       -1.3045533040        0.1363950593
 C         -2.6566133897       -0.2995422300       -0.8578184443
 C         -3.5399639646        0.8479889083       -0.5806306595
 C         -4.2378445648        0.8922155330        0.5662570957
 C         -5.2162057479        1.9399660172        1.0345358636
 C         -4.8361219896        3.4116541407        0.8209925734
 C         -3.3333017096        3.7151296267        0.9113248427
 H         -2.7981545982        2.8566037781        1.3217244406
 H         -3.1799579285        4.5501781915        1.5974821995
 C         -2.7180091411        4.0991398137       -0.4366238960
 H         -1.7849076100        4.6386775287       -0.2556591420
 H         -3.3977067940        4.7821431211       -0.9511265885
 C         -2.3869947984        2.9301071708       -1.3636013589
 H         -1.5391328706        2.3689381699       -0.9583272810
 H         -2.0635489304        3.3431187107       -2.3225467634
 C         -3.5354369065        1.9381764081       -1.6135138706
 H         -3.3524794854        1.4470928308       -2.5730707514
 H         -4.4930252573        2.4503833665       -1.6628239034
 H         -5.3684798551        3.9875266726        1.5797385970
 H         -5.2071647356        3.7486267796       -0.1458731244
 H         -6.1786403939        1.7458499508        0.5524183437
 H         -5.3463101030        1.7473876179        2.1021096575
 O         -4.1610559486       -0.1012675012        1.4954078708
 C         -3.3444202331       -1.2011113173        1.3156517351
 O         -3.3709295130       -2.0148115543        2.2603677521
 H          0.0146846512       -1.1025815306       -1.4932785455
 C          0.4592976748       -1.4031584316       -0.5565548581
 C         -0.2866160087       -2.1535136921        0.3411718178
 C          0.2878452286       -2.4939476998        1.5607042102
 C          1.5763751406       -2.0940977485        1.8683689563
 C          2.3143549466       -1.3413012339        0.9721228555
 C          1.7436034420       -0.9845936871       -0.2422871623
 N          2.4757318553       -0.1983895518       -1.1528343112
 S          3.0949141467        1.2507700040       -0.5680311563
 O          2.3015922714        1.7658832447        0.5249437061
 O          3.2296446625        2.1077308024       -1.7259064983
 C          4.7188981029        0.8032232861        0.0102664581
 C          5.5685252275        0.1642989789       -0.8717037783
 C          6.8368393885       -0.1902270063       -0.4409408094
 C          7.2334024909        0.1018434252        0.8557712566
 C          6.3703679020        0.7477432597        1.7276184646
 C          5.0992742005        1.1035422525        1.3034187193
 H          4.3911290161        1.5996390603        1.9480522778
 H          6.6802399779        0.9739839348        2.7352403877
 H          8.2208218328       -0.1758609924        1.1891694024
 H          7.5106399464       -0.6929228450       -1.1158968504
 H          5.2218092645       -0.0410777741       -1.8706157661
 H          1.9779283775       -0.0371608815       -2.0177399235
 H          3.3146178579       -1.0179743861        1.2103902358
 H          2.0094795323       -2.3668911747        2.8186883383
 H         -0.2937077734       -3.0580893917        2.2757859102
 C         -1.7133784788       -2.5372089665        0.0284834699
 H         -2.0582820391       -3.2178373433        0.8179756101
 C         -1.8383522456       -3.2472307942       -1.3046289887
 C         -1.3876917697       -4.6720103199       -1.4099782049
 C         -2.8488145965       -4.3421723240       -1.4573944047
 H         -3.3702022528       -4.4329681506       -2.3984775891
 H         -3.4560718956       -4.5855117595       -0.5975256104
 H         -1.0036128242       -5.1407796257       -0.5166237340
 H         -0.9030164649       -4.9928590578       -2.3191622806
 H         -1.6780871953       -2.6020926201       -2.1578742224
 O         -2.0193774249       -0.3357958702       -1.9449588926
