  62
        -98.93965513
 C          1.0218903947        1.4140152683        0.4738972125
 C          1.9582828822        1.1320940617       -0.5460563736
 C          3.0305700466        0.1748025824       -0.2109529336
 C          3.0590838798       -0.3750012131        1.0162242540
 C          4.0227674011       -1.3884170692        1.5812643406
 C          5.5114338950       -1.2009668383        1.2527654957
 C          6.0541676484       -2.2395611599        0.2693752222
 H          7.1326218724       -2.3304992482        0.4170104772
 H          5.6094878583       -3.2081025075        0.5079350921
 C          5.8152732227       -1.9259770828       -1.2064706036
 H          6.1191399541       -2.8022047488       -1.7839469888
 H          6.4590633860       -1.0972822425       -1.5090399162
 C          4.3727216950       -1.5734378317       -1.5745662144
 H          3.6718165798       -2.2239902761       -1.0507799179
 H          4.2429125987       -1.7646624616       -2.6421282323
 C          4.0147564979       -0.1021783814       -1.3140779947
 H          4.9245598049        0.4776362436       -1.1348309212
 H          3.5523823785        0.3268585149       -2.2086340698
 H          6.0698858482       -1.2988490527        2.1851618724
 H          5.6846409102       -0.1941027551        0.8768342005
 H          3.6924220851       -2.3818602131        1.2649193378
 H          3.8742089289       -1.3452134734        2.6630116027
 O          2.1223599970       -0.0851839296        1.9645765172
 C          1.0759416577        0.7819169886        1.7139694192
 O          0.2713081748        0.9082612320        2.6606537774
 O          1.9019536009        1.6472360734       -1.6940683464
 C         -0.1446392873        2.3448570202        0.2038889559
 C         -1.0328691318        1.7777307434       -0.8792781825
 C         -1.7182624368        2.5683470081       -1.7937439286
 C         -2.5428187727        1.9853639468       -2.7406869206
 C         -2.7196764978        0.6140910819       -2.7861953714
 C         -2.0406645315       -0.1847878504       -1.8732940890
 C         -1.2072869398        0.4024500192       -0.9357997414
 H         -0.6642583566       -0.2315814569       -0.2527554479
 N         -2.1785756321       -1.5803894885       -1.8798921910
 S         -2.1285504227       -2.4371794341       -0.4463142203
 O         -0.7818617909       -2.4952189462        0.0662845674
 O         -2.7296500642       -3.7115649468       -0.7790463666
 C         -3.2059934912       -1.5401774073        0.6567367725
 C         -4.5624697470       -1.6026084680        0.3969967414
 C         -5.4355882175       -0.8838532130        1.1955624996
 C         -4.9400516800       -0.1101505212        2.2348096748
 C         -3.5783091508       -0.0617239452        2.4858471961
 C         -2.6990288386       -0.7829864417        1.6922559917
 H         -1.6359663306       -0.7537247333        1.8750568030
 H         -3.1807249457        0.5359256081        3.2908357118
 H         -5.6173385151        0.4555619015        2.8549163009
 H         -6.4958733562       -0.9258140886        1.0055670439
 H         -4.9081049966       -2.2252314234       -0.4121469456
 H         -2.8720775026       -1.9428290656       -2.5169134975
 H         -3.3649591567        0.1637978041       -3.5244932607
 H         -3.0622407129        2.6099062779       -3.4513793598
 H         -1.6004235620        3.6393194896       -1.7696725094
 H         -0.7329831728        2.3674854292        1.1342329440
 C          0.3448891074        3.7470307318       -0.0960567787
 C         -0.4633633822        4.9381228134        0.3205441573
 C          0.8084569440        4.6072379846        1.0399948775
 H          1.6701819336        5.2400267461        0.8899378308
 H          0.7420801435        4.1904680180        2.0348372502
 H         -0.4734152415        5.8045909732       -0.3234568690
 H         -1.3949213715        4.7572422103        0.8352397354
 H          0.9013141230        3.8017639241       -1.0242855490
