  62
        -98.94062758
 C         -2.4753860645       -1.0789121351       -0.2404616831
 C         -2.1503349005        0.2988050097       -0.2047837858
 C         -3.1351357932        1.1712197380        0.4527987380
 C         -4.2388279681        0.6300905321        0.9993865982
 C         -5.3465703181        1.4073106913        1.6481329655
 C         -6.4345586793        1.7770008741        0.6300133354
 C         -5.8916218369        2.4088848244       -0.6516958608
 H         -5.3003006939        1.6661229078       -1.1919132583
 H         -6.7494129999        2.6565416042       -1.2805630571
 C         -5.0411045051        3.6670582064       -0.4278956034
 H         -5.3453393618        4.4285646590       -1.1490396191
 H         -5.2303180872        4.0700403360        0.5676501960
 C         -3.5369009500        3.4562527832       -0.6108204755
 H         -3.0573807007        4.4381504150       -0.6443359342
 H         -3.3497347881        2.9671993102       -1.5700199849
 C         -2.8388768868        2.6443130667        0.4878727696
 H         -1.7589432802        2.7355244382        0.3372278605
 H         -3.0826264443        3.0627780072        1.4666345544
 H         -7.1353787369        2.4635180835        1.1083779971
 H         -6.9784880014        0.8688051921        0.3604116999
 H         -4.9353578940        2.3075356036        2.1007252487
 H         -5.7883203145        0.7878816263        2.4304674444
 O         -4.4968083387       -0.7025036742        0.9796282230
 C         -3.6279279376       -1.5859349523        0.3634777130
 O         -3.9855466630       -2.7797404897        0.4182415122
 O         -1.1008117209        0.7865945012       -0.7012810223
 C         -1.5388815882       -2.0863090132       -0.8893845275
 C         -0.2737730572       -2.1395680691       -0.0677765301
 C         -0.3032270032       -2.7940056988        1.1610647492
 C          0.8109971976       -2.8108135433        1.9776922226
 C          1.9765283434       -2.1715181052        1.5905125944
 C          2.0121984274       -1.5083185969        0.3721773362
 C          0.8941672554       -1.5036108879       -0.4538927710
 H          0.9306132238       -0.9726949004       -1.3917275483
 N          3.1924905756       -0.8589212504       -0.0411166866
 S          4.0065895555        0.0771681210        1.1060279775
 O          4.7575216178       -0.8052831480        1.9645624718
 O          3.0887241927        0.9734001750        1.7739976810
 C          5.1223443651        0.9878773225        0.0568461539
 C          6.3577636212        0.4443670100       -0.2391784496
 C          7.2111290104        1.1405884874       -1.0803483509
 C          6.8165865742        2.3604645716       -1.6091866621
 C          5.5735318814        2.8936310209       -1.3022808501
 C          4.7146393835        2.2019973079       -0.4626165434
 H          3.7425723237        2.5829589412       -0.1910431091
 H          5.2699436438        3.8432350787       -1.7129069145
 H          7.4824040786        2.9014062743       -2.2629114756
 H          8.1791189931        0.7310301043       -1.3199405492
 H          6.6229810574       -0.5021515026        0.2018441886
 H          3.0351785600       -0.3145086006       -0.8793086866
 H          2.8479716304       -2.1638065202        2.2248936964
 H          0.7738570213       -3.3217256756        2.9284000966
 H         -1.2200569167       -3.2767660440        1.4719066922
 H         -2.0389110111       -3.0603948127       -0.8043776117
 C         -1.3164732585       -1.7784218753       -2.3548235640
 C         -0.7379049718       -2.8331285447       -3.2481394276
 C         -2.1799250064       -2.4475764277       -3.3797935122
 H         -2.4857378351       -1.8791763700       -4.2453979776
 H         -2.9302704136       -3.1393017287       -3.0254545840
 H         -0.0532083581       -2.5330130693       -4.0265472250
 H         -0.5071774962       -3.7890260509       -2.8028220766
 H         -1.0417921561       -0.7470836626       -2.5386202141
