  62
        -98.93890212
 C         -1.7638045704       -1.2221876797        0.0100225694
 C         -3.0089445504       -0.9786533801        0.6317355496
 C         -3.8728725605        0.0551638802        0.0278213002
 C         -3.4282709006        0.7147458308       -1.0581618595
 C         -4.1037821507        1.8266598711       -1.8165466188
 C         -4.0433285407        3.1740638108       -1.0795877082
 C         -4.3620714706        3.1065319100        0.4116892918
 H         -3.6648346805        2.4213537998        0.8978747414
 H         -4.1862441006        4.0995734598        0.8340484023
 C         -5.7936127705        2.6997081697        0.7531061317
 H         -6.4868377106        3.4029523500        0.2864132721
 H         -5.9067323604        2.7923833992        1.8363666318
 C         -6.1974922205        1.2784273999        0.3544499310
 H         -6.4206280306        1.2155731205       -0.7072827190
 H         -7.1276279504        1.0451375196        0.8807406510
 C         -5.1932714304        0.1990006798        0.7455728804
 H         -4.9512702603        0.3019309692        1.8097582204
 H         -5.6815944704       -0.7791285302        0.6567330999
 H         -4.7309650707        3.8657222410       -1.5692863578
 H         -3.0316681107        3.5741890809       -1.1861979180
 H         -5.1311650607        1.5552860212       -2.0405200289
 H         -3.5721253007        1.9264959216       -2.7654989088
 O         -2.2091105106        0.4596750311       -1.6146046997
 C         -1.3565723505       -0.5142270891       -1.1206460202
 O         -0.2923410406       -0.6337482487       -1.7541561604
 O         -3.3929355603       -1.5985082406        1.6616961693
 C         -0.8713451003       -2.3101422900        0.5710505288
 C          0.5116100897       -1.8200649301        0.9278607090
 C          1.5876038997       -2.6977564801        1.0206323684
 C          2.8479239997       -2.2391861802        1.3601986186
 C          3.0741107397       -0.8939981003        1.5882540892
 C          2.0110632197       -0.0073579403        1.4806466998
 C          0.7397398497       -0.4760762502        1.1824808496
 H         -0.0818067604        0.2265506598        1.1208369400
 N          2.2389567396        1.3689145596        1.6454552905
 S          3.5961407895        2.0176113701        0.9057440407
 O          4.7171550596        1.9220475996        1.8095565406
 O          3.2154483594        3.3626564802        0.5305368814
 C          3.9249097795        1.0261194408       -0.5435372898
 C          5.2121166595        0.5752920810       -0.7609512002
 C          5.4736602994       -0.1978068084       -1.8802694106
 C          4.4458614594       -0.5154718580       -2.7550382707
 C          3.1593921194       -0.0543737582       -2.5237830503
 C          2.8945451294        0.7297157112       -1.4127702199
 H          1.8924670794        1.0800429811       -1.2230823997
 H          2.3450802293       -0.3092586279       -3.1829835304
 H          4.6456294193       -1.1280456476       -3.6200531610
 H          6.4740028794       -0.5564977783       -2.0617747608
 H          5.9765581895        0.8316342706       -0.0453481501
 H          1.4268124696        1.9401803197        1.4638573508
 H          4.0510274797       -0.5155291704        1.8429257394
 H          3.6682267398       -2.9357013102        1.4375887082
 H          1.4345818998       -3.7463966500        0.8250800679
 H         -1.3656868702       -2.6426895005        1.4969045787
 C         -0.8239810803       -3.4787919395       -0.3980238918
 C         -0.8329866702       -4.8929609697        0.0981533075
 C         -2.0490434703       -4.3252683894       -0.5675177622
 H         -2.3087916404       -4.6673188089       -1.5580778823
 H         -2.9034933203       -4.0842430498        0.0483799980
 H         -0.2548641503       -5.6303895894       -0.4381094529
 H         -0.8751515902       -5.0519139403        1.1652802674
 H         -0.2472740804       -3.2523120190       -1.2878614017
