  62
        -98.93785777
 C          1.4450463684       -0.9938615449        0.1829798511
 C          1.9613950975       -0.0788223094       -0.7623821656
 C          3.0437773006        0.8092555291       -0.3015277075
 C          3.4692331378        0.7229188527        0.9728611180
 C          4.5155534413        1.5135177852        1.7309774256
 C          5.4966094621        2.4209236028        0.9934376066
 C          6.5169864047        1.6856006113        0.1245508640
 H          7.0874723031        2.4289948567       -0.4364830261
 H          7.2138419053        1.1581784115        0.7808404847
 C          5.9392486179        0.6621657152       -0.8497624279
 H          6.7743538098        0.2030311566       -1.3856870640
 H          5.4391479767       -0.1326931791       -0.2926725896
 C          4.9727665896        1.2237052489       -1.8901808561
 H          5.4517354177        2.0401789897       -2.4341034931
 H          4.7590644629        0.4252008981       -2.6057067620
 C          3.6270023062        1.7247923519       -1.3395285926
 H          2.9110087213        1.7440061774       -2.1665109627
 H          3.7100853809        2.7393506677       -0.9569540442
 H          4.9582717120        3.1613626538        0.4089875201
 H          6.0510962588        2.9680936385        1.7607874616
 H          3.9602764387        2.1198934146        2.4554737860
 H          5.0783031855        0.7786705977        2.3156201519
 O          2.9148888586       -0.1562407304        1.8596489689
 C          1.9001363430       -1.0293401565        1.4993495240
 O          1.4995992465       -1.7610898216        2.4235289918
 O          1.5266451902        0.0059636746       -1.9419933086
 C          0.3317999965       -1.9323603640       -0.2381954655
 C         -0.9349025983       -1.6498294135        0.5317492512
 C         -1.8187428298       -2.6453704438        0.9292967135
 C         -2.9976341008       -2.3239612583        1.5808570934
 C         -3.3277074607       -1.0066107524        1.8431512273
 C         -2.4504159555       -0.0057119092        1.4511659196
 C         -1.2714820639       -0.3292895399        0.7997333334
 H         -0.5990715166        0.4606665116        0.4875563270
 N         -2.8076997014        1.3496752136        1.6634346791
 S         -4.0167838437        1.8611406593        0.6129701264
 O         -3.9346410864        3.3041799613        0.5827584863
 O         -5.2724407917        1.3033087705        1.0444002734
 C         -3.5340098319        1.1572936250       -0.9530286039
 C         -2.5072779639        1.7605725141       -1.6519838864
 C         -2.0244483163        1.1494034405       -2.7972642532
 C         -2.5704195259       -0.0541915549       -3.2158540529
 C         -3.6042175098       -0.6450242760       -2.5060709389
 C         -4.0902724470       -0.0384378120       -1.3591268848
 H         -4.8845719318       -0.4687231405       -0.7716524170
 H         -4.0244741035       -1.5815797168       -2.8352458989
 H         -2.1803698439       -0.5342856988       -4.0995114124
 H         -1.2115567733        1.5983304831       -3.3452242219
 H         -2.1064025162        2.6959339665       -1.2934762117
 H         -2.0186316545        1.9750130092        1.5721783478
 H         -4.2506887168       -0.7344716877        2.3287683576
 H         -3.6708913763       -3.1107480364        1.8846977367
 H         -1.5846161805       -3.6775346165        0.7266646085
 H          0.1348037739       -1.6907698827       -1.2943234006
 C          0.7838410299       -3.3750172006       -0.1450695860
 C          0.2648614328       -4.3967626345       -1.1111258916
 C          1.6810288696       -3.9191663166       -1.2151226989
 H          2.4778101579       -4.5892882317       -0.9290728754
 H          1.9401259473       -3.2565001797       -2.0280115445
 H          0.0903893405       -5.4008260302       -0.7547121883
 H         -0.4355552139       -4.0649671135       -1.8623483006
 H          0.9787010842       -3.6838949781        0.8757471019
