  62
        -98.93718220
 C         -1.6239974350       -1.4860496023       -0.0190588405
 C         -2.8992370338       -1.2231815360        0.5453709362
 C         -3.6797741758       -0.1064528579       -0.0205573602
 C         -3.1444635537        0.6084685164       -1.0266917945
 C         -3.7169842390        1.8183991068       -1.7143005957
 C         -3.5771624012        3.0974862017       -0.8700845217
 C         -3.8624070787        2.9222409778        0.6197493813
 H         -3.2137653416        2.1413768421        1.0213947067
 H         -3.5943269664        3.8553854874        1.1219877584
 C         -5.3146103233        2.6075170703        0.9715347979
 H         -5.9490762766        3.4334119458        0.6412246961
 H         -5.3818476706        2.5531843062        2.0611894808
 C         -5.8791941577        1.3089719052        0.3935059957
 H         -6.0920649565        1.4168985452       -0.6666902542
 H         -6.8395033105        1.1253642023        0.8847258192
 C         -5.0247472519        0.0690543370        0.6415121955
 H         -4.8414264030       -0.0282278220        1.7175350720
 H         -5.6120162782       -0.8164579165        0.3679055292
 H         -2.5502632523        3.4568267807       -0.9701003583
 H         -4.2409317464        3.8586696744       -1.2831149614
 H         -3.1563242089        1.9502813686       -2.6424756452
 H         -4.7543503206        1.6369494028       -1.9797471972
 O         -1.9165865860        0.3248918707       -1.5392901110
 C         -1.1266112965       -0.7118932093       -1.0685397387
 O         -0.0449854875       -0.8177924845       -1.6755062128
 O         -3.3724551118       -1.8921959676        1.5027208555
 C         -0.7905553133       -2.5732988879        0.6413255143
 C          0.5129333102       -1.9604283839        1.0829454961
 C          0.5884048796       -1.2956165864        2.3032057818
 C          1.7476012157       -0.6436315110        2.6817952239
 C          2.8397312209       -0.6065778057        1.8324789459
 C          2.7625106693       -1.2473143150        0.6027117674
 C          1.6207584454       -1.9540135357        0.2502667927
 H          1.5741780267       -2.4542978840       -0.7040213284
 N          3.8349792196       -1.1425749408       -0.3003003318
 S          4.5308097385        0.3710376301       -0.4710967200
 O          4.9926718963        0.4300780663       -1.8411389462
 O          5.5570484395        0.5333341333        0.5317284487
 C          3.2465980361        1.5836310706       -0.1904342451
 C          2.0363081016        1.4587525283       -0.8420289882
 C          1.0535808076        2.4089393621       -0.6129321581
 C          1.2954184796        3.4672683863        0.2481643498
 C          2.5209389167        3.5844646631        0.8858986322
 C          3.5049623124        2.6341091414        0.6682142834
 H          4.4666085089        2.6798010091        1.1534394755
 H          2.7094701656        4.4085654099        1.5550007864
 H          0.5247732447        4.2014577479        0.4240286948
 H          0.1002192236        2.2994946813       -1.1066186768
 H          1.8403229202        0.6239811232       -1.4963496021
 H          3.6313974556       -1.5429304726       -1.2050035018
 H          3.7449301244       -0.0846997013        2.0987117024
 H          1.7978706980       -0.1447201653        3.6373964395
 H         -0.2781761142       -1.2880695641        2.9493701694
 H         -1.3656109415       -2.8438289373        1.5408167979
 C         -0.6088500788       -3.8564591740       -0.1538506463
 C         -1.7781861668       -4.4752918706       -0.8592689047
 C         -0.6284701792       -3.9303982607       -1.6496197499
 H          0.0396377803       -4.6318925564       -2.1286111262
 H         -0.7703249195       -3.0188027272       -2.2069477873
 H         -1.9110540443       -5.5452980208       -0.8067138079
 H         -2.7036505814       -3.9175961698       -0.8595183186
 H          0.0672015827       -4.5407203487        0.3508104117
