  62
        -98.94531411
 C         -2.2370951743       -0.7918959963        0.0592671899
 C         -2.4425618387        0.1229419732        1.1201918689
 C         -2.6344807260        1.5232600430        0.7310552303
 C         -2.6194742635        1.8612954641       -0.5713750212
 C         -2.8539807340        3.2387894730       -1.1286024593
 C         -1.5938924268        4.1125638013       -1.1695464165
 C         -1.1030597219        4.6107080340        0.1899166903
 H         -0.3424816182        5.3696083708       -0.0015880394
 H         -1.9246568104        5.0991016880        0.7149473683
 C         -0.4960604954        3.5196698349        1.0831704872
 H         -0.2456234311        2.6467318580        0.4752438307
 H          0.4388882209        3.8813912841        1.5166645899
 C         -1.3915605134        3.0813325526        2.2428555696
 H         -0.8768492533        2.2886649291        2.7925586367
 H         -1.5415084576        3.9193448798        2.9271514397
 C         -2.7665428397        2.5473246702        1.8174096743
 H         -3.4052665028        3.3687785533        1.4940300583
 H         -3.2295518615        2.0627573436        2.6805342230
 H         -0.7998640285        3.5437077479       -1.6556887314
 H         -1.8182864074        4.9814113628       -1.7922766500
 H         -3.6317520828        3.7398339068       -0.5518604980
 H         -3.2123833060        3.1031892029       -2.1512967818
 O         -2.3983486529        0.9560736855       -1.5597540949
 C         -2.1646533586       -0.3814734258       -1.2723680427
 O         -1.9169838732       -1.0807346168       -2.2718756079
 O         -2.4635076019       -0.2162619048        2.3349067759
 C         -2.0131259919       -2.2565146083        0.3966193568
 C         -0.5754069683       -2.6019977068        0.0980859238
 C         -0.1822849230       -3.5298405994       -0.8557380289
 C          1.1630598860       -3.7522148916       -1.1002282758
 C          2.1385136199       -3.0697401121       -0.3970780133
 C          1.7547013039       -2.1389453439        0.5625809756
 C          0.4077275268       -1.9140086934        0.8013249086
 H          0.1061793870       -1.1900074964        1.5480114439
 N          2.7309380712       -1.4519172496        1.3107808220
 S          3.9272450894       -0.5621031298        0.5620533384
 O          4.6156058399       -1.3995193612       -0.3866130694
 O          4.7254646704       -0.0186587960        1.6361450794
 C          3.1199371801        0.7772819161       -0.3013494757
 C          3.3886537553        2.0746322634        0.0885373465
 C          2.8000536118        3.1204709473       -0.6030715149
 C          1.9466852188        2.8521470716       -1.6620082686
 C          1.6666480535        1.5438161145       -2.0265597619
 C          2.2626248322        0.4929883548       -1.3464230582
 H          2.0686346569       -0.5319206030       -1.6207995147
 H          0.9853891985        1.3299600459       -2.8359629719
 H          1.5004488601        3.6680288306       -2.2086927790
 H          3.0091430310        4.1389439435       -0.3185094632
 H          4.0603450153        2.2347321043        0.9163558034
 H          2.3457375650       -0.9189768439        2.0774879378
 H          3.1871215369       -3.2287801551       -0.5878186571
 H          1.4570925821       -4.4720470967       -1.8491438652
 H         -0.9261802211       -4.0708925852       -1.4162804835
 H         -2.1587120228       -2.3287797137        1.4841972239
 C         -3.0227960267       -3.1491183614       -0.2897654842
 C         -3.2976592211       -4.5164750586        0.2585694599
 C         -4.3247032216       -3.4339638976        0.3948353009
 H         -5.2203108776       -3.4922826601       -0.2052680858
 H         -4.4818432704       -2.9967225640        1.3701664664
 H         -3.4902278089       -5.3216092557       -0.4340161498
 H         -2.7569855045       -4.8170691847        1.1433111315
 H         -3.0457743730       -3.0147604448       -1.3646519672
