  62
        -98.93717202
 C         -2.4405895418       -0.9708229218       -0.1526492478
 C         -3.5941779479       -0.8717095200        0.6567860731
 C         -4.6701546732        0.0191376690        0.1805658327
 C         -4.4959149179        0.6785881243       -0.9801799998
 C         -5.4241145385        1.6652089874       -1.6372067913
 C         -5.4004284397        3.0439421573       -0.9571091569
 C         -5.4227457567        3.0096280212        0.5688490119
 H         -4.5712200816        2.4278373621        0.9265685762
 H         -5.2875462927        4.0340145049        0.9259508428
 C         -6.7070859605        2.4650845503        1.1894297368
 H         -6.6164990611        2.5765594981        2.2730246875
 H         -7.5504757515        3.0775417742        0.8626724793
 C         -7.0264096830        0.9993859863        0.8884390318
 H         -7.4284084411        0.8836471074       -0.1144462898
 H         -7.8184323423        0.6910083488        1.5772489825
 C         -5.8637705906        0.0357581005        1.1051598455
 H         -6.2553558523       -0.9888479846        1.0980260370
 H         -5.4610391331        0.1813489147        2.1140843792
 H         -6.2494497717        3.6236756506       -1.3231007860
 H         -4.4846847007        3.5550498195       -1.2639638965
 H         -5.0802388635        1.7804865004       -2.6674158733
 H         -6.4330516185        1.2647660835       -1.6680937808
 O         -3.3621056736        0.5523581954       -1.7279401695
 C         -2.3135200436       -0.2635166859       -1.3471370197
 O         -1.3528839700       -0.2755834003       -2.1400611493
 O         -3.7244298523       -1.4961562688        1.7450203973
 C         -1.3042820226       -1.8731138474        0.2930212381
 C         -0.0482763673       -1.0579146586        0.4754938081
 C         -0.0726706018        0.0135098765        1.3654728469
 C          1.0491424670        0.7936360797        1.5646969643
 C          2.2225745309        0.5257466981        0.8802912343
 C          2.2617488235       -0.5443580287       -0.0014083970
 C          1.1324945554       -1.3321429249       -0.1943412926
 H          1.1805925487       -2.1579933038       -0.8867377079
 N          3.4428492743       -0.8167294013       -0.7083885610
 S          4.9067970686       -0.8262762446        0.1056730365
 O          5.7754383264       -1.6631901278       -0.6930149766
 O          4.7420647796       -1.2096093379        1.4886127319
 C          5.4707274935        0.8592520540        0.0008957903
 C          5.8451411408        1.5325344572        1.1471029799
 C          6.2943490195        2.8396642548        1.0403749004
 C          6.3618711310        3.4465076550       -0.2042986292
 C          5.9845500599        2.7555642000       -1.3462697930
 C          5.5355081085        1.4485279090       -1.2464614565
 H          5.2349172445        0.8785105138       -2.1097460762
 H          6.0378868238        3.2308446453       -2.3125465282
 H          6.7107602782        4.4638988508       -0.2853309987
 H          6.5883385461        3.3784239160        1.9268413839
 H          5.7704987536        1.0224731633        2.0943773544
 H          3.3709646400       -1.5909683405       -1.3518357189
 H          3.1005518249        1.1331988401        1.0272637985
 H          1.0118171345        1.6216579870        2.2563789424
 H         -0.9899355931        0.2255106752        1.8980947372
 H         -1.6063176801       -2.2570812414        1.2785622180
 C         -1.1512132046       -3.0419122750       -0.6567291315
 C         -0.5133880485       -4.3138112687       -0.1851929890
 C         -1.9888539836       -4.2652669370       -0.4425615609
 H         -2.3795857644       -4.7804430396       -1.3072236274
 H         -2.6578586328       -4.2664114720        0.4054210209
 H          0.1084247503       -4.8672291919       -0.8730331456
 H         -0.1771778598       -4.3533210115        0.8400404386
 H         -0.9784976042       -2.7297409792       -1.6808161286
