  62
        -98.94509139
 C          0.9638091290        1.2207502302        0.4728096010
 C          1.4795592991        0.0441791803        1.0707360612
 C          2.2454369900       -0.8511531293        0.1940205615
 C          2.3561612806       -0.5507562692       -1.1124999284
 C          3.1239855715       -1.3613689988       -2.1159338180
 C          4.5757913313       -0.8771138482       -2.2330986272
 C          5.2826818905       -0.7216769880       -0.8865015768
 H          6.3086444005       -0.4090055276       -1.0919796362
 H          4.8062408999        0.0865320117       -0.3269146170
 C          5.2965134705       -1.9936138781       -0.0272195869
 H          5.0827471612       -2.8629674281       -0.6500175271
 H          6.2995783304       -2.1273478178        0.3830623637
 C          4.3301853899       -1.9681214386        1.1584129226
 H          4.4783043292       -1.0487583986        1.7303424727
 H          4.5779353298       -2.8059434086        1.8153729926
 C          2.8399610501       -2.0853540491        0.8131783517
 H          2.6769439908       -2.9556074791        0.1730743016
 H          2.2963866896       -2.2360077394        1.7504768214
 H          5.1258539520       -1.5842506979       -2.8567587969
 H          4.5771403512        0.0924460218       -2.7366898871
 H          3.1016353517       -2.4092684988       -1.8215785781
 H          2.6310855020       -1.2578436889       -3.0845672283
 O          1.8097045805        0.5606120807       -1.6631571986
 C          1.0835335897        1.4628078903       -0.8981077789
 O          0.6242571697        2.4183660802       -1.5508819591
 H         -1.4775272006        0.2159547992        0.5008801695
 C         -1.9005378909        1.1812102091        0.2636255794
 C         -1.2190367915        2.3291659993        0.6494513099
 C         -1.7748725218        3.5640884091        0.3482224297
 C         -2.9680701115        3.6365997787       -0.3510853910
 C         -3.6129034808        2.4918912285       -0.7816647915
 C         -3.0657468305        1.2498952887       -0.4777575813
 N         -3.6759342898        0.0564395185       -0.8933725817
 S         -2.7181883690       -1.2513390211       -1.3168275213
 O         -1.4705224188       -0.8508083906       -1.9244276106
 O         -3.5866712283       -2.0728808914       -2.1359217918
 C         -2.4255046396       -2.0943765311        0.2234118588
 C         -1.1439676796       -2.4876014207        0.5531790595
 C         -0.9349768000       -3.1585976007        1.7474328495
 C         -2.0064333504       -3.4232051812        2.5860178189
 C         -3.2887935003       -3.0256781316        2.2382572482
 C         -3.5045424599       -2.3563957316        1.0446188282
 H         -4.4846855599       -2.0319780020        0.7377029677
 H         -4.1185757906       -3.2331708120        2.8944853678
 H         -1.8374745107       -3.9407352912        3.5170783390
 H          0.0638390800       -3.4592319603        2.0198602801
 H         -0.3330213293       -2.2446944703       -0.1175823500
 H         -4.4587576595        0.1709942582       -1.5206264321
 H         -4.5235487705        2.5546191882       -1.3578030620
 H         -3.3891629417        4.6021914486       -0.5874086811
 H         -1.2622234323        4.4687126193        0.6312496600
 C          0.1057561082        2.1276126198        1.3404190906
 H         -0.0756454421        1.5305950696        2.2506476104
 C          0.7703546774        3.4157024700        1.7974508311
 C          2.2625921773        3.5216193005        1.8896303519
 C          1.5170658976        4.3180646103        0.8632243116
 H          1.4327593071        5.3853400803        1.0084128616
 H          1.5831903583        4.0209693205       -0.1711880384
 H          2.6913719867        4.0384339906        2.7350983422
 H          2.8435679078        2.6751980708        1.5524972122
 H          0.2078023468        3.8996193997        2.5901224308
 O          1.2958709286       -0.2517427999        2.2821931710
