  62
        -98.93741749
 C         -2.6913576126       -0.2017897119       -0.4705331761
 C         -2.2219500984       -0.7154296140        0.7630283352
 C         -1.6279825796       -2.0588970002        0.7189880650
 C         -1.5564808061       -2.7080897582       -0.4569849421
 C         -0.8624100378       -4.0200195661       -0.6867563857
 C          0.6606488332       -3.7878035675       -0.7699667495
 C          1.4597967886       -4.4367663524        0.3601139995
 H          1.5209695546       -5.5130314604        0.1825311095
 H          2.4730251997       -4.0321710666        0.3129565976
 C          0.9073524898       -4.2239961827        1.7726951169
 H          0.0890850543       -4.9227027148        1.9556511122
 H          1.7051322726       -4.4875690032        2.4704010302
 C          0.4204079426       -2.8054256045        2.0981046041
 H          0.7133022991       -2.5692171513        3.1237395133
 H          0.9052965225       -2.0659102003        1.4580519330
 C         -1.1070604503       -2.6210146776        2.0115381086
 H         -1.4133541235       -1.8999457072        2.7752789844
 H         -1.6063011851       -3.5696400909        2.2297798983
 H          1.0353357389       -4.1734441766       -1.7198342165
 H          0.8464704403       -2.7111180341       -0.7700289666
 H         -1.1026468330       -4.7115624269        0.1176762791
 H         -1.2371179486       -4.4286843701       -1.6256695532
 O         -2.0419522715       -2.1922849388       -1.6166965086
 C         -2.5843415226       -0.9189179448       -1.6597707820
 O         -2.9291260752       -0.5428401453       -2.8004531840
 O         -2.2911585893       -0.0786260580        1.8474707361
 C         -3.1875370733        1.2334082450       -0.5480323127
 C         -2.0524017560        2.1256530577       -0.1041133484
 C         -2.1673691443        3.1286993531        0.8484811006
 C         -1.0473239263        3.8207329125        1.2797549109
 C          0.2085697214        3.5228018421        0.7815200292
 C          0.3248138292        2.5481463716       -0.1972969164
 C         -0.7971739369        1.8757126660       -0.6453646870
 H         -0.6872954198        1.0988316565       -1.3937151118
 N          1.6215768312        2.1762688601       -0.6712615110
 S          2.1222909656        0.7681913660        0.1337238852
 O          1.5082007586       -0.3984647393       -0.4673378515
 O          1.9126974260        0.9624778306        1.5445657825
 C          3.8701600645        0.7778379081       -0.2197232203
 C          4.3985489157       -0.1099278368       -1.1358550062
 C          5.7553331373       -0.0555167869       -1.4163416008
 C          6.5537063974        0.8844626529       -0.7831499056
 C          6.0077771044        1.7703587842        0.1342847492
 C          4.6532823939        1.7191049588        0.4202688980
 H          4.1841622240        2.3796037745        1.1303002497
 H          6.6322313961        2.4988251445        0.6257882607
 H          7.6084482460        0.9255665768       -1.0047324941
 H          6.1820326125       -0.7449673791       -2.1269944648
 H          3.7403025282       -0.8258879762       -1.6019930031
 H          1.5921201192        1.9465613199       -1.6576360724
 H          1.0929064587        4.0201534057        1.1441837386
 H         -1.1532201896        4.5854144934        2.0341710747
 H         -3.1321790802        3.3504701933        1.2750568187
 H         -3.3945711860        1.4299329931       -1.6102158960
 C         -4.4613164422        1.4214459062        0.2458077017
 C         -5.4287208295        2.5021062918       -0.1312502872
 C         -5.7697772970        1.0665423252       -0.3917270573
 H         -6.5272411008        0.5952423082        0.2160276455
 H         -5.7425055693        0.7083123421       -1.4106913043
 H         -5.9576041971        3.0176599108        0.6559151103
 H         -5.1783708349        3.1239255437       -0.9773698027
 H         -4.3343915013        1.1858958689        1.2959116378
