  62
        -98.93774078
 C         -2.1686579345       -1.0096531948       -0.5356858673
 C         -3.5672202179       -1.0152093298       -0.2851396931
 C         -4.2767655907        0.2545104833       -0.4840067236
 C         -3.5797804538        1.3426208239       -0.8568669781
 C         -4.1594910660        2.7149873528       -1.0373094767
 C         -4.0825645805        3.5260315056        0.2636680848
 C         -4.6095920452        2.7793283204        1.4891248331
 H         -3.9517929471        1.9327619319        1.7006370599
 H         -4.5371628185        3.4598096535        2.3403987355
 C         -6.0546830886        2.2786951503        1.3551844362
 H         -6.5917479664        2.5102208317        2.2773686855
 H         -6.5571332986        2.8097695494        0.5459344163
 C         -6.1852586035        0.7711730190        1.1300540123
 H         -5.6028196719        0.2365423121        1.8847411954
 H         -7.2338282075        0.4959131221        1.2710210756
 C         -5.7619286804        0.2638730278       -0.2542472652
 H         -6.0856058506       -0.7776442964       -0.3385016437
 H         -6.2667890922        0.8447437413       -1.0288790038
 H         -3.0380146900        3.7889553081        0.4473487675
 H         -4.6470020586        4.4504095817        0.1280519319
 H         -3.5877549986        3.2311501324       -1.8103996102
 H         -5.1944857836        2.6262404595       -1.3618967764
 O         -2.2417673108        1.3195719760       -1.0699861898
 C         -1.4960842879        0.1555962700       -0.9118227251
 O         -0.2846222425        0.3152726855       -1.1497283905
 O         -4.1960515709       -2.0413489498        0.0873248709
 C         -1.4260052032       -2.3150530162       -0.2969144714
 C         -0.2788332577       -2.0684425252        0.6476029943
 C         -0.5106312538       -2.0256921273        2.0188777015
 C          0.5103838770       -1.7175466847        2.8995192789
 C          1.7772292704       -1.4246519039        2.4269856281
 C          2.0117394383       -1.4506008026        1.0591514421
 C          0.9966771156       -1.7980935569        0.1790098249
 H          1.1873447578       -1.8075430448       -0.8827393274
 N          3.2891580696       -1.1118714403        0.5753678601
 S          3.9586876557        0.3013744487        1.2235066198
 O          4.8356214092       -0.0776507773        2.3063471526
 O          2.9210743514        1.2457589404        1.5676872331
 C          4.9168123127        0.9100979543       -0.1505161364
 C          6.2898757023        0.7609293443       -0.1594929771
 C          7.0061205397        1.2291970850       -1.2501593275
 C          6.3404728539        1.8323002499       -2.3064145123
 C          4.9604414686        1.9732010029       -2.2832309041
 C          4.2375898669        1.5077226570       -1.1963741562
 H          3.1634482786        1.6026500112       -1.1370550040
 H          4.4436261210        2.4417992676       -3.1054664912
 H          6.8986545080        2.1971406344       -3.1541156748
 H          8.0785898096        1.1227925640       -1.2722551324
 H          6.7614267994        0.2885995550        0.6864898463
 H          3.3040145579       -1.0787509257       -0.4353574027
 H          2.5806821742       -1.1487581512        3.0924768838
 H          0.3163608825       -1.6912445095        3.9614885838
 H         -1.5078460256       -2.2228374339        2.3882123562
 H         -2.1620234251       -2.9529566271        0.2178774219
 C         -1.0098815061       -3.0654248750       -1.5532726968
 C         -1.9496970341       -3.1683152190       -2.7165907206
 C         -0.6733762958       -2.3958849514       -2.8502990779
 H          0.1198184026       -2.8211587211       -3.4481173577
 H         -0.7238846766       -1.3198082248       -2.8964973573
 H         -2.0388553114       -4.1143153365       -3.2287520213
 H         -2.8753177832       -2.6147167262       -2.6530612449
 H         -0.4417540114       -3.9585368878       -1.3103544125
