  62
        -98.93768518
 C          1.7875169410        1.0387119978       -0.2102898300
 C          2.9294112419        1.1715295691        0.6241694623
 C          4.1697631701        0.5374476959        0.1568884443
 C          4.1645267083       -0.1155635354       -1.0189772540
 C          5.3185810315       -0.8823868457       -1.5990940879
 C          5.4567970270       -2.2433423141       -0.8871321513
 C          6.7425280389       -2.4030634321       -0.0753981383
 H          6.6282340079       -3.2943384720        0.5453702207
 H          7.5742105688       -2.5831018895       -0.7598701216
 C          7.1198400070       -1.2178036696        0.8183713610
 H          7.5857089917       -0.4370870010        0.2152041728
 H          7.8853943060       -1.5738381844        1.5110644100
 C          5.9743409906       -0.5957458841        1.6275052769
 H          5.1729211057       -1.3193161818        1.7792944161
 H          6.3589459827       -0.3364326967        2.6159931074
 C          5.3892221573        0.6940002938        1.0224568817
 H          5.0700852018        1.3486325191        1.8387565320
 H          6.1679892908        1.2209036904        0.4640947707
 H          4.5927837829       -2.3770222922       -0.2324411741
 H          5.4170745634       -3.0459658292       -1.6252409193
 H          6.2333988077       -0.3026298013       -1.4982696938
 H          5.1122325530       -1.0280037464       -2.6596679046
 O          3.0566167550       -0.2173954490       -1.7945816201
 C          1.8453253642        0.3451669536       -1.4184967459
 O          0.9343414310        0.1479192813       -2.2487242705
 O          2.9103653428        1.8042096305        1.7135641273
 C          0.5098035719        1.6985162985        0.2818642637
 C         -0.4352739847        0.6942541814        0.8967473655
 C         -0.7756190340        0.7635235285        2.2423831765
 C         -1.6673370431       -0.1409969602        2.7933592847
 C         -2.2378335108       -1.1310157592        2.0139472082
 C         -1.8975192187       -1.2116567163        0.6698218346
 C         -1.0095516880       -0.3007925112        0.1181390628
 H         -0.7459481064       -0.3736147845       -0.9264761783
 N         -2.4878123740       -2.2072753918       -0.1378012375
 S         -4.1620718022       -2.1446595676       -0.2204234770
 O         -4.7170011394       -2.7307758221        0.9739200284
 O         -4.5197228766       -2.7855394000       -1.4658755778
 C         -4.5311093980       -0.4005069940       -0.2720288420
 C         -4.2223954957        0.2932114890       -1.4251730090
 C         -4.4244118436        1.6629843440       -1.4573556097
 C         -4.9205494257        2.3133745874       -0.3378908962
 C         -5.2258305194        1.6023215468        0.8119450058
 C         -5.0278643858        0.2314414398        0.8495116371
 H         -5.2513440072       -0.3593915793        1.7224196624
 H         -5.6119230216        2.1115768731        1.6800346302
 H         -5.0706180806        3.3812673769       -0.3628218196
 H         -4.1889132602        2.2161679409       -2.3526536607
 H         -3.8394616612       -0.2452841658       -2.2776799815
 H         -2.0980282710       -2.2306018220       -1.0699024919
 H         -2.9402447041       -1.8406793883        2.4205497955
 H         -1.9212671418       -0.0741857720        3.8401363971
 H         -0.3270986882        1.5277642414        2.8600216574
 H          0.8334648757        2.3821714859        1.0777607481
 C         -0.2026530504        2.5073582841       -0.7856898276
 C         -1.1842434405        3.5572447101       -0.3631156346
 C          0.1329341496        3.9572015266       -0.9557985513
 H          0.1500162973        4.3671877895       -1.9544826597
 H          0.8824907479        4.3769055236       -0.3007554603
 H         -2.0769516285        3.6920493106       -0.9531754940
 H         -1.3297985761        3.7064712374        0.6957302614
 H         -0.4233624657        1.9405034837       -1.6804149515
