  62
        -98.94373069
 C         -1.6983739797       -0.4401205006        0.2883791895
 C         -2.5582140795       -0.2505940683       -0.8210799302
 C         -3.7134892494        0.6310529315       -0.5905203186
 C         -3.8580424494        1.2361743092        0.6019338625
 C         -5.0122471592        2.1150335587        0.9854575741
 C         -6.1395494695        1.3003084777        1.6352169924
 C         -6.5371211196        0.0545203093        0.8434644199
 H         -7.3609875298       -0.4218076815        1.3792850389
 H         -5.7025010798       -0.6501334008        0.8448642987
 C         -6.9618368394        0.3323473722       -0.6052605296
 H         -7.2088756992        1.3880545625       -0.7233500976
 H         -7.8680101095       -0.2379930572       -0.8199445308
 C         -5.9249990194       -0.0660609160       -1.6572416302
 H         -6.4059110493       -0.0318635240       -2.6384227702
 H         -5.6064524096       -1.0971168564       -1.4848781022
 C         -4.6745817492        0.8194072039       -1.7304011384
 H         -4.9701089290        1.8670894841       -1.8166240164
 H         -4.1231680192        0.5431102955       -2.6339926789
 H         -7.0084133994        1.9498030177        1.7563792635
 H         -5.8104943396        0.9846134458        2.6279805418
 H         -5.3834140390        2.6258658105        0.0990368850
 H         -4.6555247392        2.8595203173        1.6993946955
 O         -2.9755100595        1.0801066171        1.6220159023
 C         -1.8795464797        0.2455418171        1.4908634408
 O         -1.1440868898        0.2022077951        2.4991352908
 O         -2.3823863695       -0.7860508062       -1.9452833612
 C         -0.4741264799       -1.3367163107        0.1899618679
 C          0.5483733604       -0.6542557992       -0.6851280906
 C          0.8578453104       -1.0601753768       -1.9757947414
 C          1.8043489407       -0.3728956656       -2.7175186600
 C          2.4711572608        0.7154628033       -2.1848079478
 C          2.1690367408        1.1255783609       -0.8927978471
 C          1.2113911505        0.4471707697       -0.1571987885
 H          0.9711225205        0.7697697378        0.8484614521
 N          2.9019276509        2.1916278196       -0.3174071749
 S          4.5129112308        1.7914215188       -0.0453659455
 O          4.9714150609        2.6735148067        1.0040510362
 O          5.2291443010        1.8626929910       -1.2931291653
 C          4.4346939004        0.1021909377        0.5233489412
 C          4.6433451803       -0.9277675106       -0.3716138607
 C          4.4461913800       -2.2319456714        0.0522532968
 C          4.0432004198       -2.4817829538        1.3548972462
 C          3.8455977899       -1.4367372055        2.2444328282
 C          4.0362495102       -0.1304165647        1.8245980207
 H          3.8883911203        0.7081339340        2.4868797123
 H          3.5318297497       -1.6330863874        3.2573485478
 H          3.8821366195       -3.4975170344        1.6811422043
 H          4.5973212499       -3.0472882201       -0.6364801348
 H          4.9527148904       -0.6899120188       -1.3758233402
 H          2.4944683409        2.5162857780        0.5490427556
 H          3.2302123610        1.2451160242       -2.7376353867
 H          2.0304373107       -0.6943694937       -3.7226591106
 H          0.3482747203       -1.9063737059       -2.4049055131
 H         -0.0578022100       -1.3820344827        1.2058410079
 C         -0.8168607401       -2.7419095897       -0.2536931948
 C          0.1984768297       -3.8265195503       -0.0570872868
 C         -1.0411545904       -3.7984134617        0.7841101032
 H         -1.8040548306       -4.5412828312        0.6051595917
 H         -0.9509905005       -3.5084902737        1.8209792537
 H          0.2891173896       -4.5923627789       -0.8117485482
 H          1.1331857497       -3.5485219114        0.4063849739
 H         -1.4371181500       -2.7742679579       -1.1402914649
