  62
        -98.93880504
 C         -1.8550077511       -0.9295667258       -0.2302468491
 C         -2.9956772637       -1.0849515875        0.5964614188
 C         -4.2588067278       -0.4792476035        0.1346494228
 C         -4.2632974532        0.1881566118       -1.0340165732
 C         -5.4053810941        0.9159097657       -1.6922416461
 C         -5.7138382550        2.2657378588       -1.0256114005
 C         -5.7422106663        2.2364769605        0.5001345731
 H         -4.7758614141        1.8887170634        0.8700175947
 H         -5.8707451605        3.2645763132        0.8490119183
 C         -6.8563481750        1.3918794895        1.1140111380
 H         -6.8200335244        1.5458043443        2.1955402399
 H         -7.8217383788        1.7596770929        0.7593078491
 C         -6.7797962346       -0.1132577191        0.8474781721
 H         -7.1322009513       -0.3550599566       -0.1516876611
 H         -7.4665936843       -0.6018774093        1.5447497980
 C         -5.4054402615       -0.7310187008        1.0838154489
 H         -5.5155711259       -1.8212851256        1.1268746755
 H         -5.0466927335       -0.4398386674        2.0776325475
 H         -6.6726686864        2.6251247299       -1.4032139929
 H         -4.9429583567        2.9778817361       -1.3306128322
 H         -5.1044857911        1.1001565994       -2.7260182319
 H         -6.2887009877        0.2844767485       -1.7126348135
 O         -3.1404502505        0.3196827019       -1.7945300697
 C         -1.9213699786       -0.2208830511       -1.4288578325
 O         -1.0113284855       -0.0020575546       -2.2538632754
 O         -2.9664738194       -1.7131708639        1.6886488003
 C         -0.5583710882       -1.5573856578        0.2540627689
 C          0.3612874596       -0.4947237128        0.8045894453
 C          0.4849096496       -0.3118055611        2.1774133174
 C          1.3272855825        0.6601177538        2.6885549421
 C          2.0621403176        1.4701904380        1.8413087607
 C          1.9370753435        1.3007693934        0.4686787104
 C          1.1002727656        0.3194773106       -0.0420995449
 H          0.9936784801        0.2097128235       -1.1104881962
 N          2.6885721504        2.1189793890       -0.4031349484
 S          4.3524733708        1.9649529756       -0.2673433078
 O          4.7874084411        2.6140194564        0.9435837726
 O          4.8987829816        2.4834453299       -1.5008726042
 C          4.6215181960        0.2061594253       -0.1502535331
 C          4.7350683193       -0.3852772670        1.0916038299
 C          4.8531117403       -1.7637877147        1.1667644832
 C          4.8541585468       -2.5221582151        0.0066385914
 C          4.7429721773       -1.9120624761       -1.2334765318
 C          4.6181959826       -0.5349545586       -1.3150092459
 H          4.5319755418       -0.0227300077       -2.2601426343
 H          4.7485695124       -2.5033339265       -2.1353781979
 H          4.9432129087       -3.5953619313        0.0686923239
 H          4.9401753561       -2.2413897686        2.1292691394
 H          4.7351373413        0.2400707401        1.9689387638
 H          2.4136775602        2.0086766907       -1.3694153506
 H          2.7309891422        2.2272008174        2.2182055561
 H          1.4126055453        0.7888473684        3.7568472845
 H         -0.0961471345       -0.9337616369        2.8430264154
 H         -0.8528407854       -2.2080833645        1.0880174704
 C          0.1255045365       -2.4033499788       -0.8020135166
 C          1.2240511058       -3.3323710429       -0.3829698020
 C         -0.0997720824       -3.8841724988       -0.8172889480
 H         -0.1643717764       -4.3843349517       -1.7720038634
 H         -0.7534725620       -4.2986601550       -0.0638366984
 H          2.0730784474       -3.4518899229       -1.0375668618
 H          1.4702984166       -3.3685243184        0.6672383132
 H          0.2208287674       -1.9090285661       -1.7598789733
