  62
        -98.93954697
 C         -1.4942759988       -1.1420564282        0.1462744135
 C         -2.5404034479       -0.6380155975        0.9560376110
 C         -3.0630432108        0.6939097123        0.6121303772
 C         -2.5012505822        1.3785371007       -0.3985724588
 C         -2.8264360222        2.7667379892       -0.8913975512
 C         -4.3059468950        3.1626778265       -0.9812132957
 C         -5.2590367377        2.0207101704       -1.3636997631
 H         -5.8820208331        2.3434047695       -2.1997885012
 H         -4.6866668103        1.1539909882       -1.6985040572
 C         -6.1864599970        1.6079980849       -0.2183920154
 H         -7.0490037224        1.0833681012       -0.6361669008
 H         -6.5583060120        2.5096017400        0.2730515907
 C         -5.5626560439        0.6886184845        0.8309086414
 H         -6.2839123295        0.5655624045        1.6423432609
 H         -5.3922320114       -0.3026223857        0.4018058163
 C         -4.2303807719        1.1718746864        1.4274110160
 H         -4.2197243333        2.2523864884        1.5500294065
 H         -4.1155250946        0.7111176112        2.4126662210
 H         -4.6264528460        3.5919938613       -0.0330871392
 H         -4.3732444674        3.9589722307       -1.7245109404
 H         -2.3694812712        2.8303915497       -1.8821752088
 H         -2.2982615552        3.4795554669       -0.2505024647
 O         -1.4704030067        0.8733209180       -1.1296530157
 C         -0.9292745335       -0.3748975116       -0.8712378187
 O          0.0238827698       -0.6738719816       -1.6161377280
 O         -3.0097272382       -1.2711587154        1.9407079452
 C         -0.9092264150       -2.4967890528        0.5031973103
 C          0.5957424062       -2.4038970674        0.5506358346
 C          1.4515954915       -3.2879565619       -0.0931327833
 C          2.8240397759       -3.1213368289       -0.0138350469
 C          3.3699533949       -2.0596223912        0.6829986953
 C          2.5208447511       -1.1691025899        1.3298065238
 C          1.1516926599       -1.3633365109        1.2860474550
 H          0.5073289118       -0.6599528361        1.7944951764
 N          3.0164894275       -0.0411906264        2.0220998924
 S          2.6703459625        1.4458906154        1.3243761022
 O          3.2997753033        2.4244403911        2.1864565073
 O          1.2488645650        1.5812270566        1.1382746713
 C          3.5341905933        1.3978196371       -0.2361801916
 C          2.9761895329        0.7213840197       -1.3023199433
 C          3.7055179381        0.6207046274       -2.4782274453
 C          4.9666484637        1.1887610722       -2.5671438926
 C          5.5114124978        1.8648486757       -1.4853950881
 C          4.7924662297        1.9661071571       -0.3059747119
 H          5.1723327975        2.4828419983        0.5607713007
 H          6.4914414839        2.3085251310       -1.5563406130
 H          5.5267817780        1.1041796187       -3.4850380192
 H          3.2751121323        0.0928455111       -3.3141123578
 H          1.9903139896        0.2898966352       -1.2167353674
 H          4.0100006875       -0.0870726249        2.2073393476
 H          4.4389942605       -1.9129724034        0.7220506293
 H          3.4756688174       -3.8165740405       -0.5205523096
 H          1.0460432845       -4.0987080240       -0.6754970819
 H         -1.2671318695       -2.6829751425        1.5305916987
 C         -1.4220030997       -3.6482057744       -0.3496220043
 C         -2.7198300034       -3.5446965885       -1.0920481365
 C         -1.4269125221       -3.5865897051       -1.8468302761
 H         -1.1866946150       -4.4836069870       -2.3985804885
 H         -1.0698439424       -2.6785995848       -2.3064327565
 H         -3.3645368656       -4.4104305824       -1.1198364645
 H         -3.2521037960       -2.6056184131       -1.0417335128
 H         -1.2067803780       -4.6135742949        0.0979504455
