  62
        -98.94009880
 C         -2.6241363650       -0.6239040334        0.0275098142
 C         -2.1653152449        0.2768379621       -0.9672014069
 C         -2.5082415622        1.6917564839       -0.7536571466
 C         -3.2183012376        2.0619243942        0.3262413926
 C         -3.6940492089        3.4533549978        0.6476920177
 C         -2.6536006436        4.3319877025        1.3541021359
 C         -1.5029997479        4.8112584731        0.4688146754
 H         -1.9062799435        5.2696608823       -0.4347159650
 H         -0.9736155151        5.5894431858        1.0220187264
 C         -0.5028874501        3.7117518384        0.0870254531
 H         -0.6157270499        2.8552767634        0.7557580267
 H          0.5179752652        4.0759227510        0.2208248125
 C         -0.6102314127        3.2150398436       -1.3543573404
 H          0.1101986508        2.4011000874       -1.4754454451
 H         -0.3346031987        4.0176278928       -2.0431960653
 C         -1.9980885564        2.6920884949       -1.7464842561
 H         -2.6984012342        3.5221674770       -1.8454386142
 H         -1.9124038209        2.1871358357       -2.7122535647
 H         -2.2504784430        3.7799657706        2.2061103658
 H         -3.1773383473        5.2090215743        1.7414716563
 H         -4.5544600272        3.3383128495        1.3105566783
 H         -4.0239222177        3.9446678363       -0.2683030924
 O         -3.6308283054        1.1692673267        1.2655881512
 C         -3.3310952864       -0.1762927405        1.1468841871
 O         -3.7616254237       -0.8763930609        2.0872348438
 O         -1.5215693936       -0.0566385697       -1.9972912450
 C         -2.3902003464       -2.1229367170       -0.0210437619
 C         -1.0558925256       -2.5353931625        0.5590025489
 C         -0.9363629752       -3.7573647694        1.2131655467
 C          0.2834284899       -4.1721998532        1.7139894034
 C          1.4054106802       -3.3761526655        1.5761109691
 C          1.2949488612       -2.1445520176        0.9387415623
 C          0.0698204541       -1.7363737010        0.4291338494
 H          0.0050890714       -0.7879710911       -0.0804999625
 N          2.4124299337       -1.3008509736        0.8484874797
 S          2.5205222328       -0.1355364650       -0.3647362151
 O          1.6645754287        0.9696257626       -0.0226097904
 O          2.3342616820       -0.7436364186       -1.6628079511
 C          4.2269384524        0.3429822676       -0.1626663394
 C          4.5432258936        1.3124762753        0.7696999969
 C          5.8722529261        1.6621652197        0.9492054452
 C          6.8581018425        1.0392419060        0.1983927008
 C          6.5257661926        0.0697404898       -0.7358947000
 C          5.1984408168       -0.2844516600       -0.9195747581
 H          4.8916881557       -1.0236532201       -1.6421272708
 H          7.2936477960       -0.4100682540       -1.3210214484
 H          7.8915133450        1.3136943023        0.3396147318
 H          6.1335113058        2.4181294121        1.6720415269
 H          3.7416761868        1.7737958096        1.3229365594
 H          3.2886207440       -1.7854647615        0.9851071712
 H          2.3587077542       -3.6963265056        1.9677352052
 H          0.3628632219       -5.1242906853        2.2160506387
 H         -1.8104391965       -4.3792644548        1.3330700138
 H         -3.1727622882       -2.5645849022        0.6132416342
 C         -2.5265391814       -2.7038633507       -1.4175134678
 C         -3.0474078783       -4.0964395064       -1.5986083979
 C         -3.8919839793       -2.9230711377       -1.9932414381
 H         -4.0457658629       -2.7181523753       -3.0418404309
 H         -4.7389632351       -2.6721831515       -1.3707846389
 H         -2.6175069668       -4.7062839800       -2.3782210007
 H         -3.3365447361       -4.6474041927       -0.7168557269
 H         -1.7523446537       -2.3622800513       -2.0932697551
