  62
        -98.93833373
 C         -2.2580436377        1.0087651080       -0.3795009479
 C         -2.4696496130        0.1098049211        0.6911766093
 C         -3.3226004893       -1.0599813742        0.4076769793
 C         -3.8327874565       -1.2242784772       -0.8270827221
 C         -4.6919380395       -2.3253390676       -1.4137707124
 C         -5.3907792755       -3.3372543937       -0.5094953091
 C         -6.5059455114       -2.7554360238        0.3586843530
 H         -7.3382396769       -2.4713433845       -0.2902480148
 H         -6.8608074690       -3.5405480121        1.0298544585
 C         -6.1270762391       -1.5288134422        1.1848441531
 H         -5.8635917293       -0.7046765741        0.5186836197
 H         -7.0125413469       -1.2178080512        1.7458609626
 C         -4.9932257494       -1.7395730754        2.1862896964
 H         -5.2286669215       -2.5848667559        2.8357351459
 H         -4.9351966320       -0.8439196621        2.8104379350
 C         -3.6006686774       -1.9658193490        1.5725853053
 H         -2.8524533920       -1.7219983484        2.3325349237
 H         -3.4552429776       -3.0067515684        1.2939038914
 H         -5.8421627181       -4.0831830910       -1.1694405380
 H         -4.6627778089       -3.8600456320        0.1037101863
 H         -5.4414891917       -1.8199199576       -2.0311828134
 H         -4.0418606867       -2.8713078361       -2.1067083835
 O         -3.5697682579       -0.3433113651       -1.8388033466
 C         -2.7907225738        0.7835375557       -1.6459173587
 O         -2.6426157327        1.4886025171       -2.6660845695
 O         -1.9658617247        0.2669010787        1.8329164774
 C         -1.4053583903        2.2466613088       -0.1731489042
 C         -0.0095202299        1.8574178991        0.2524644374
 C          0.6832021645        2.4954254630        1.2727003318
 C          1.9682203380        2.0988342021        1.6015908359
 C          2.5894726663        1.0658373047        0.9248677028
 C          1.9119995308        0.4306271849       -0.1079937694
 C          0.6277039189        0.8340930652       -0.4387363365
 H          0.1019017265        0.3398780975       -1.2477060557
 N          2.5294390766       -0.6276171909       -0.7979515388
 S          4.0781058547       -0.3887226065       -1.4020543146
 O          4.3180977288        1.0028333806       -1.7069382182
 O          4.2010691481       -1.3190632761       -2.5032965034
 C          5.1409502743       -0.9178711020       -0.0754629342
 C          4.9808724601       -2.2000949614        0.4121767203
 C          5.8039740247       -2.6326658700        1.4394975182
 C          6.7696004444       -1.7816960746        1.9566123017
 C          6.9200615957       -0.4985485155        1.4535577654
 C          6.0991558879       -0.0591703140        0.4264143215
 H          6.1761016007        0.9313933435        0.0071953520
 H          7.6717019902        0.1609271674        1.8566093154
 H          7.4085953915       -2.1211467972        2.7564449307
 H          5.6894929187       -3.6297449387        1.8333060414
 H          4.2209733312       -2.8301015030       -0.0194456329
 H          1.9386983679       -1.0534652356       -1.4973271215
 H          3.5867071856        0.7497074135        1.1835868693
 H          2.4918828076        2.5994211979        2.4015952383
 H          0.2158107363        3.3013094457        1.8140975152
 H         -1.3328209274        2.7327193156       -1.1579287532
 C         -2.0902038679        3.1955143864        0.7887617007
 C         -1.8911825184        4.6752000744        0.6637346732
 C         -3.2017517265        4.0600275698        0.2772739950
 H         -4.0596722412        4.2273303376        0.9110164851
 H         -3.4440375132        3.9843478441       -0.7732711742
 H         -1.8526311887        5.2689802921        1.5645119586
 H         -1.2459868558        5.0285395605       -0.1265504780
 H         -2.2010142154        2.7726731884        1.7804777950
