  62
        -98.93887919
 C         -1.8884068306       -0.1953343002        0.0030409303
 C         -2.8806085604       -1.1223738208        0.3961140193
 C         -4.2126797304       -0.5696029914        0.6948093801
 C         -4.4047486407        0.7572712287        0.5946880717
 C         -5.6904282308        1.5106366382        0.7955825628
 C         -6.4197970609        1.7031596097       -0.5449857069
 C         -7.3477945408        0.5563086101       -0.9438733282
 H         -8.2244842307        0.5617331391       -0.2927271781
 H         -7.6939462209        0.7573605612       -1.9603635279
 C         -6.7191015306       -0.8391498199       -0.9056725999
 H         -5.7155724706       -0.8025151992       -1.3335505100
 H         -7.3178330005       -1.4929565692       -1.5428828407
 C         -6.6643040203       -1.4380343016        0.5076384093
 H         -7.0935482602       -2.4419042516        0.4908197381
 H         -7.2940368503       -0.8440107025        1.1697976901
 C         -5.2579384102       -1.5680135021        1.1121736690
 H         -5.3369100801       -1.5548871934        2.2043243890
 H         -4.8342490401       -2.5402076517        0.8416631078
 H         -7.0151707911        2.6169598496       -0.4922480657
 H         -5.6627205510        1.8515202508       -1.3194824768
 H         -6.3241982406        1.0068535972        1.5193242023
 H         -5.4182336909        2.4927276278        1.1877316840
 O         -3.4156445908        1.6180021393        0.2269332927
 C         -2.1405930208        1.1735335299       -0.0801810280
 O         -1.3448278410        2.0755836804       -0.4029552670
 O         -2.6638930302       -2.3608128109        0.4918126478
 C         -0.4995104305       -0.7075322096       -0.3353467305
 C          0.5161982595       -0.0648770805        0.5753159702
 C          0.3327451996       -0.1703217522        1.9528304901
 C          1.2143225496        0.4259194569        2.8317648107
 C          2.3077359195        1.1301816776        2.3569962915
 C          2.5050745293        1.2356050593        0.9865140816
 C          1.6157766693        0.6337375202        0.1044657309
 H          1.7875294992        0.7488180015       -0.9520466089
 N          3.5995573191        1.9542883301        0.4777848723
 S          4.5358825191        1.2990460217       -0.7420456986
 O          5.7577634190        2.0724521919       -0.7161742678
 O          3.8126015690        1.2928194731       -1.9871631285
 C          4.8566799994       -0.3679026189       -0.1961654206
 C          5.8294441096       -0.5640830599        0.7650126090
 C          6.0411117598       -1.8426365004        1.2538509075
 C          5.2735392800       -2.8969982600        0.7821963463
 C          4.3025397898       -2.6835153090       -0.1836444634
 C          4.0886299396       -1.4070439784       -0.6798296718
 H          3.3462287394       -1.2023953476       -1.4331784315
 H          3.7083269999       -3.5049064986       -0.5512926843
 H          5.4341707902       -3.8916829804        1.1671154250
 H          6.7992180299       -2.0132395512        2.0011556272
 H          6.4108883395        0.2805301998        1.0975608500
 H          4.1815730691        2.3790525393        1.1849689828
 H          2.9943395495        1.6049583069        3.0413159020
 H          1.0531069998        0.3414680755        3.8958641506
 H         -0.5232136702       -0.7183932728        2.3225894095
 H         -0.5268583303       -1.7851543998       -0.1159965418
 C         -0.2125163907       -0.5181933377       -1.8091960103
 C          0.7059432294       -1.4604779067       -2.5258201615
 C         -0.7684221507       -1.5039631566       -2.7911445114
 H         -1.1367970908       -1.1367904155       -3.7373409809
 H         -1.3343514405       -2.3340622872       -2.3940171223
 H          1.3578155992       -1.0628909957       -3.2899475611
 H          1.1321440396       -2.2703818073       -1.9529995125
 H         -0.2069630309        0.5250843926       -2.1058877390
