  62
        -98.93169864
 C          2.2971477404        1.3542948897        0.2941835990
 C          2.3924774801        0.2974794189       -0.6412628402
 C          3.3643089100       -0.7730786609       -0.3311237196
 C          4.0833351303       -0.7014346801        0.8024013902
 C          5.1269619503       -1.6561675598        1.3249235307
 C          6.1490079100       -2.1833688808        0.3059512709
 C          5.9647138298       -3.6644711010       -0.0288524679
 H          6.9172674796       -4.0630833514       -0.3848963378
 H          5.7112343199       -4.1990299203        0.8890918426
 C          4.9118010895       -3.9629194217       -1.0948565574
 H          5.2865034793       -3.6472434925       -2.0709036578
 H          4.7787699593       -5.0466557017       -1.1331109766
 C          3.5469903296       -3.3092204314       -0.8684436176
 H          3.2700298298       -3.3574324705        0.1841558125
 H          2.8039159894       -3.8895582717       -1.4194609470
 C          3.4684288997       -1.8586876318       -1.3675584588
 H          4.3196192195       -1.6424516024       -2.0197863491
 H          2.5751462395       -1.7319230722       -1.9873662087
 H          6.1123880599       -1.5820932515       -0.6011586196
 H          7.1435283201       -2.0570024505        0.7369002205
 H          5.6414399906       -1.1065617893        2.1166441001
 H          4.6195478403       -2.4944100894        1.8090935515
 O          3.9193872106        0.3124288206        1.7019402194
 C          3.0264221407        1.3447393805        1.4840714088
 O          2.9670157610        2.1761990913        2.4127566182
 O          1.7044285098        0.2328472382       -1.6918212000
 C          1.3350480805        2.5125507796        0.0956411183
 C         -0.0155470697        1.9979085694       -0.3410711710
 C         -0.6717932299        2.4201107386       -1.4889054612
 C         -1.9187994500        1.9114418585       -1.8090182605
 C         -2.5355911199        0.9755972992       -1.0001017596
 C         -1.8897915197        0.5480661100        0.1528824906
 C         -0.6467208696        1.0677975102        0.4768377099
 H         -0.1433402494        0.7351619908        1.3778451100
 N         -2.4999634896       -0.4177369492        0.9737122215
 S         -4.0799702195       -0.1489300087        1.4740136317
 O         -4.3750596493        1.2630154714        1.5576163806
 O         -4.2230494093       -0.9084530277        2.6974196423
 C         -5.0699851799       -0.9068127995        0.2031282525
 C         -4.8517265901       -2.2401189298       -0.0835060165
 C         -5.6203176904       -2.8481594305       -1.0631129859
 C         -6.5907358305       -2.1179127609       -1.7331157862
 C         -6.8001619802       -0.7811292406       -1.4309141472
 C         -6.0336847199       -0.1663807300       -0.4529239179
 H         -6.1569216298        0.8716420703       -0.1881231287
 H         -7.5554387603       -0.2154848610       -1.9524444375
 H         -7.1872154307       -2.5939421414       -2.4952918957
 H         -5.4600048206       -3.8874578207       -1.3010141051
 H         -4.0905832600       -2.7725539095        0.4622265137
 H         -1.9265243095       -0.7074436487        1.7525677116
 H         -3.5028262000        0.5722529891       -1.2518296190
 H         -2.4147141402        2.2443085178       -2.7080669706
 H         -0.1993889900        3.1316725680       -2.1455931818
 H          1.2106126408        2.9502188104        1.1009220080
 C          1.8746512904        3.6243975589       -0.7921527727
 C          3.3489796004        3.8618129086       -0.9228088732
 C          2.5663005301        3.3481367378       -2.0918870427
 H          2.3866603200        4.0183439971       -2.9198092731
 H          2.6871803399        2.3168240575       -2.3819663519
 H          3.7028026705        4.8817175385       -0.9445731541
 H          4.0135565005        3.1814915789       -0.4097930029
 H          1.2509364105        4.5121235590       -0.7494340233
