  62
        -98.94824731
 C         -1.1865925791       -1.2147419285       -0.0213335569
 C         -1.9129206953       -0.6409915820        1.0490024096
 C         -2.5471258613        0.6554057073        0.7745052575
 C         -2.3951286831        1.2185880427       -0.4380042642
 C         -3.0238231222        2.5119282199       -0.8673996985
 C         -4.3931177353        2.2748337800       -1.5197077842
 C         -5.3158958120        1.3684076854       -0.7052090008
 H         -6.2623414516        1.2972736352       -1.2453502067
 H         -4.8892094008        0.3634509745       -0.6697207113
 C         -5.5806356948        1.8548922940        0.7264635324
 H         -5.3256233427        2.9117705192        0.8128186542
 H         -6.6479317008        1.7606343082        0.9373862629
 C         -4.8426469710        1.0673005028        1.8108657230
 H         -5.0212922665       -0.0022660239        1.6736097884
 H         -5.2627505569        1.3468071084        2.7808072794
 C         -3.3274240019        1.2953707454        1.8875020475
 H         -3.1162506421        2.3659176362        1.9403132629
 H         -2.9655663917        0.8331762180        2.8111523730
 H         -4.2360050065        1.8131766580       -2.4970381975
 H         -4.8739396275        3.2424970022       -1.6734575268
 H         -2.3642672695        2.9942580779       -1.5907875175
 H         -3.1287030494        3.1623194661       -0.0010440482
 O         -1.6786512601        0.6441862288       -1.4370700541
 C         -1.0473395884       -0.5804915607       -1.2550304939
 O         -0.4110409043       -0.9800209174       -2.2465528301
 O         -2.0252536212       -1.1877607875        2.1801616895
 C         -0.4911199007       -2.5468522203        0.1906585736
 C          1.0001063693       -2.3772800944        0.0313222284
 C          1.7774998395       -3.1699159278       -0.8025712876
 C          3.1422020128       -2.9584426638       -0.8962293178
 C          3.7563233590       -1.9588851849       -0.1654283528
 C          2.9893850539       -1.1663053886        0.6821454520
 C          1.6240645837       -1.3823266834        0.7759166630
 H          1.0377456301       -0.7656737786        1.4422819413
 N          3.5939799106       -0.1642353112        1.4626060986
 S          2.9292080171        1.3665531985        1.5347171394
 O          3.9719520524        2.1789570671        2.1234326631
 O          1.6719179725        1.3376634472        2.2369438741
 C          2.6876065965        1.8380659215       -0.1656983099
 C          1.4362032486        1.7135857246       -0.7307063054
 C          1.2710392036        2.0194448177       -2.0719549197
 C          2.3583544337        2.4425543390       -2.8200580457
 C          3.6099074381        2.5709492277       -2.2359918375
 C          3.7806578235        2.2614816481       -0.8969111280
 H          4.7334915905        2.3569331321       -0.4019096055
 H          4.4506784238        2.9060969248       -2.8217001480
 H          2.2257393361        2.6743022230       -3.8650416506
 H          0.2986716314        1.9026302884       -2.5237019058
 H          0.6145566846        1.3807470188       -0.1152307620
 H          4.5958947915       -0.1039138925        1.3481670803
 H          4.8203294802       -1.7941786991       -0.2407517926
 H          3.7343141869       -3.5781819194       -1.5520790552
 H          1.3155217130       -3.9512306397       -1.3826910100
 H         -0.6892672309       -2.8144765755        1.2396019831
 C         -1.0884264447       -3.6114945677       -0.7049643436
 C         -1.0342864317       -5.0531904890       -0.2993013426
 C         -2.3362464598       -4.3125614995       -0.2617613149
 H         -3.0870896357       -4.5470517864       -1.0014086713
 H         -2.7436033312       -4.0390474803        0.7009319688
 H         -0.8937215448       -5.8002669228       -1.0656868976
 H         -0.5593753786       -5.2898812277        0.6408187324
 H         -0.9991508988       -3.3699085753       -1.7579421475
