  62
        -98.93419256
 C         -2.6242627041       -0.0082668376        0.0599290888
 C         -2.3619458553        1.0527738052        0.9552056020
 C         -1.6953825676        2.2422785833        0.3992998885
 C         -1.4076501854        2.2751442011       -0.9142311196
 C         -0.6483341945        3.3105569574       -1.7058487483
 C         -0.8208206082        4.7913954136       -1.3411352154
 C          0.3737265543        5.3829301448       -0.5886250186
 H          1.2881098651        4.9546314383       -1.0047841219
 H          0.4025068670        6.4592921649       -0.7728648213
 C          0.3672919777        5.1750001637        0.9243883571
 H         -0.4128049871        5.7943058104        1.3725075495
 H          1.3264976142        5.5276054361        1.3104324893
 C          0.1561279067        3.7306542430        1.3792698566
 H          0.7249587112        3.0398384044        0.7539947850
 H          0.5447907578        3.6352470978        2.3958141925
 C         -1.3222762072        3.3079370444        1.3923454568
 H         -1.5781432878        2.8848782592        2.3685613620
 H         -1.9663571714        4.1795600770        1.2556388824
 H         -1.7401512259        4.9325079352       -0.7763318350
 H         -0.9290485670        5.3433779195       -2.2764910317
 H          0.4091869080        3.0311960377       -1.6545892865
 H         -0.9561159804        3.1482924561       -2.7422015726
 O         -1.7525814004        1.2595754875       -1.7569175915
 C         -2.2932672067        0.0751455283       -1.2918768756
 O         -2.4476523619       -0.7985814900       -2.1671818471
 H         -0.5786867872       -0.8741258969        1.3543224324
 C         -0.6522898126       -1.8301169133        0.8496529657
 C         -1.8973908700       -2.2863433144        0.4322769634
 C         -1.9632143289       -3.5160702575       -0.2073484325
 C         -0.8076374619       -4.2370030889       -0.4637736057
 C          0.4342004790       -3.7449910618       -0.1034579425
 C          0.5032743195       -2.5334267547        0.5674205653
 N          1.7780484596       -1.9680605522        0.8781398878
 S          2.2189119154       -0.8687173157       -0.3377040956
 O          1.5501187572        0.4016559299       -0.1411967578
 O          2.0264545421       -1.5133807382       -1.6116148756
 C          3.9628233977       -0.6888635200       -0.0098215369
 C          4.8014525402       -1.7254332977       -0.3717016135
 C          6.1542446872       -1.6219433174       -0.0914721190
 C          6.6431265899       -0.4903265885        0.5448096096
 C          5.7890742033        0.5414658278        0.9024363656
 C          4.4340447603        0.4428796823        0.6259050263
 H          3.7340112808        1.2223770423        0.8814021865
 H          6.1710413779        1.4208032710        1.3956054898
 H          7.6965967238       -0.4114700471        0.7621200639
 H          6.8215574958       -2.4218723967       -0.3688723527
 H          4.3752898930       -2.5797716318       -0.8706957687
 H          1.7346906746       -1.4384804330        1.7410584185
 H          1.3423300305       -4.2720225931       -0.3451952437
 H         -0.8760227942       -5.1836641350       -0.9778882722
 H         -2.9173078399       -3.8978852063       -0.5327642007
 C         -3.0681435542       -1.3502548239        0.6213092270
 H         -3.2210499964       -1.1864658485        1.6979701834
 C         -4.3587987561       -1.8393884982        0.0066044121
 C         -5.2190557839       -2.8140631856        0.7531207016
 C         -5.6606934519       -1.3909507353        0.5976940657
 H         -6.4800196994       -1.1728265182       -0.0703633440
 H         -5.6166591639       -0.7428920782        1.4607635455
 H         -5.7399984267       -3.5752906273        0.1926614132
 H         -4.8798211539       -3.1356163146        1.7261088175
 H         -4.3004067754       -1.9243926075       -1.0722035655
 O         -2.6365344490        0.9911686879        2.1864469518
