  62
        -98.93097130
 C         -2.4403262242       -0.8283563652        0.0638796175
 C         -2.9159804469        0.2919836337        0.7919821253
 C         -4.1106832058        0.9653738421        0.2644471732
 C         -4.6670588769        0.5076481762       -0.8715523361
 C         -5.9318173677        1.0253729316       -1.4955040586
 C         -7.1550474332        0.4873583491       -0.7258384430
 C         -7.9696707895        1.5618874063       -0.0053333913
 H         -8.5661489094        2.1069872729       -0.7399158984
 H         -8.6620621665        1.0510730155        0.6672949146
 C         -7.1620305151        2.5877282478        0.7956569610
 H         -6.7511817904        3.3397210049        0.1204238368
 H         -7.8669794124        3.1073930769        1.4481140547
 C         -6.0219119536        2.0234952314        1.6533403961
 H         -6.2078889744        0.9782556981        1.9016445860
 H         -6.0013369593        2.5746317645        2.5957945735
 C         -4.6212970526        2.1568923652        1.0263852791
 H         -4.5912889545        3.0416363534        0.3844428776
 H         -3.8924967883        2.3081755675        1.8281756514
 H         -7.8171270944       -0.0379617865       -1.4158078938
 H         -6.8056993378       -0.2522983202       -0.0022553667
 H         -5.9250851319        2.1130291023       -1.4928492743
 H         -5.9502897858        0.6779664235       -2.5286181299
 O         -4.1723730875       -0.5545142662       -1.5547218600
 C         -3.0518317129       -1.2522899152       -1.1167004983
 O         -2.7315952830       -2.1954469248       -1.8610099812
 O         -2.3645256230        0.7039414816        1.8490453956
 C         -1.2277588616       -1.5401633025        0.6362883722
 C          0.0537970140       -0.9914831019        0.0631554530
 C          0.2524153141       -0.8942122422       -1.3104902389
 C          1.4457061543       -0.4067958070       -1.8120005415
 C          2.4598375077       -0.0038556873       -0.9604899569
 C          2.2709149260       -0.0925248231        0.4116891888
 C          1.0723520567       -0.5850431101        0.9126160635
 H          0.9248552519       -0.6422610818        1.9829708080
 N          3.2936853784        0.3262929173        1.2791433057
 S          4.8364221795       -0.2949493327        1.0416459255
 O          4.7856658873       -1.6027254700        0.4309068464
 O          5.4786091731       -0.2120082506        2.3350438578
 C          5.6057124131        0.8690214275       -0.0637300771
 C          5.6611176318        2.1944164414        0.3207510545
 C          6.2672894301        3.1108301317       -0.5234869051
 C          6.8074551855        2.6884442512       -1.7292378111
 C          6.7466760323        1.3536405384       -2.0991762434
 C          6.1405129905        0.4318733301       -1.2596889102
 H          6.0660408893       -0.6149709185       -1.5080088435
 H          7.1674720099        1.0272628357       -3.0366834556
 H          7.2789368568        3.4039244807       -2.3843469616
 H          6.3166801036        4.1497040858       -0.2394291011
 H          5.2339703724        2.4812617799        1.2671587503
 H          3.0402598529        0.2925276062        2.2561371159
 H          3.3902626514        0.3769653759       -1.3488840804
 H          1.5878380436       -0.3392789738       -2.8799867231
 H         -0.5353303084       -1.2114601503       -1.9771187894
 H         -1.2401940770       -1.2855497299        1.7083717262
 C         -1.3171673284       -3.0569584859        0.5372086233
 C         -0.4644097216       -3.8889210835       -0.3676139382
 C         -0.2255294184       -3.9122169225        1.1104576479
 H         -0.4964405793       -4.7952548680        1.6691106193
 H          0.6592052996       -3.4120632747        1.4768737615
 H         -0.9239821437       -4.7451842299       -0.8368124547
 H          0.2614471566       -3.3915917041       -0.9910713757
 H         -2.3335398150       -3.4079614273        0.6861036054
