  62
        -98.94498899
 C         -1.8421300196       -1.2603622410       -0.0326313709
 C         -3.0643360797       -0.9308549418        0.6005942593
 C         -3.8592856403        0.1207425379       -0.0438762904
 C         -3.4107785107        0.6995706184       -1.1727629803
 C         -4.1224958214        1.7629516282       -1.9649311599
 C         -3.9073732221        3.1893385682       -1.4404660496
 C         -4.6301434321        3.5191167375       -0.1337314595
 H         -4.5702561827        4.6008844575        0.0016002808
 H         -5.6853671320        3.2610292170       -0.2280043294
 C         -4.0398907617        2.8338589675        1.1067413203
 H         -3.9413275620        3.5629897274        1.9142692905
 H         -3.0335215815        2.4737094881        0.8789705801
 C         -4.8728264410        1.6702034870        1.6447134301
 H         -4.3444047607        1.2351862270        2.4971486400
 H         -5.8351696512        2.0436984164        2.0013717503
 C         -5.1291860105        0.5530163571        0.6248189899
 H         -5.5344353500       -0.3104373733        1.1581559497
 H         -5.8583449307        0.8802501269       -0.1161054700
 H         -4.2649466425        3.8765844182       -2.2107010294
 H         -2.8351782822        3.3603611788       -1.3166764997
 H         -3.7286012214        1.7081995887       -2.9821167300
 H         -5.1901820512        1.5433138577       -1.9940373999
 O         -2.2301940706        0.3552525892       -1.7520525305
 C         -1.4125483800       -0.6245516605       -1.1982082108
 O         -0.3563307300       -0.8196307298       -1.8251631309
 H         -0.1766127502        0.1571769896        1.1537363493
 C          0.6459766301       -0.5466218800        1.1869337691
 C          0.4109335808       -1.8847239501        0.9054088888
 C          1.4859800413       -2.7658901095        0.9595625684
 C          2.7528302811       -2.3165390689        1.2881458084
 C          2.9846519604       -0.9782605089        1.5476283487
 C          1.9214444699       -0.0874285094        1.4807596091
 N          2.1548292392        1.2828852407        1.6845035494
 S          3.4955194788        1.9538862016        0.9339334494
 O          4.6388284489        1.8265324220        1.8048807493
 O          3.1079928281        3.3107410714        0.6122911898
 C          3.7799592092        1.0069839521       -0.5532277908
 C          2.7252404692        0.7632514017       -1.4093961808
 C          2.9451184795        0.0044577521       -2.5471127410
 C          4.2142333698       -0.4831887771       -2.8172018312
 C          5.2680060697       -0.2162853468       -1.9564926213
 C          5.0502075994        0.5302116728       -0.8100054811
 H          5.8355894493        0.7458020131       -0.1037429011
 H          6.2545749499       -0.5951405562       -2.1696925715
 H          4.3797623700       -1.0769453168       -3.7023027214
 H          2.1106036696       -0.2146434582       -3.1937099310
 H          1.7388526490        1.1381634112       -1.1871002106
 H          1.3394977889        1.8609094403        1.5433609696
 H          3.9659285602       -0.6078048584        1.7972971388
 H          3.5733459215       -3.0156327285        1.3337590482
 H          1.3283820318       -3.8096614095        0.7430929182
 C         -0.9839469490       -2.3550364507        0.5689913588
 H         -1.4852157787       -2.6323916912        1.5093544687
 C         -0.9768795084       -3.5638733705       -0.3490251915
 C         -1.0009520176       -4.9542564706        0.2100599981
 C         -2.2199098380       -4.3940666411       -0.4567519816
 H         -2.5050551178       -4.7753115410       -1.4257688417
 H         -3.0579395881       -4.1103799117        0.1634769385
 H         -1.0225060175       -5.0643830009        1.2839131781
 H         -0.4472967072       -5.7256476102       -0.3038505321
 H         -0.4140273186       -3.3870843500       -1.2587264815
 O         -3.4726884893       -1.4911522623        1.6538122892
