  62
        -98.93863801
 C         -2.8039410780       -0.0981567596        0.0951674628
 C         -2.1309707825       -0.8430196819        1.0943552793
 C         -1.8204525095       -2.2406596368        0.7556499177
 C         -2.1766322304       -2.7314361280       -0.4436364412
 C         -1.8982723414       -4.1270394205       -0.9205419012
 C         -0.5788502486       -4.2150415123       -1.6989030176
 C          0.6143865100       -3.5703619379       -0.9927345986
 H          1.4942606626       -3.7627035692       -1.6119612447
 H          0.4816365566       -2.4856871286       -0.9687243151
 C          0.8725936261       -4.0836558397        0.4308049227
 H          1.9467836673       -4.2400473172        0.5520093331
 H          0.3866326856       -5.0500329242        0.5722922733
 C          0.4314025878       -3.1230894931        1.5372851621
 H          0.7880671621       -2.1162701134        1.3024198250
 H          0.9033144189       -3.4359788813        2.4727126751
 C         -1.0805766430       -3.0458345163        1.7864232813
 H         -1.4955601115       -4.0525762027        1.8660437056
 H         -1.2383186162       -2.5312756135        2.7388555728
 H         -0.3646935366       -5.2693044055       -1.8873969104
 H         -0.7102513257       -3.7171981032       -2.6626232330
 H         -1.8697160811       -4.7961301600       -0.0624168260
 H         -2.7149018006       -4.4304762989       -1.5784450610
 O         -2.8283732303       -1.9906534815       -1.3768817665
 C         -3.1258074101       -0.6602648147       -1.1433915330
 O         -3.6918460213       -0.0883922309       -2.0978184142
 O         -1.7962314783       -0.3861363552        2.2193821272
 C         -3.1439753968        1.3792465283        0.2420887994
 C         -1.9539184568        2.1852448275       -0.2123786668
 C         -2.0502900635        3.1452811054       -1.2117165491
 C         -0.9176260322        3.7873389982       -1.6851784087
 C          0.3345418169        3.4710578929       -1.1873330518
 C          0.4347863611        2.5240373533       -0.1787547002
 C         -0.7003717325        1.9051523971        0.3139726604
 H         -0.6072745529        1.1647936990        1.0948713585
 N          1.7215547552        2.1171818231        0.2805941325
 S          2.2867342762        0.9117281218       -0.7770807831
 O          2.5358664663        1.5374249109       -2.0516472901
 O          1.3763337997       -0.2124084943       -0.7858031955
 C          3.8314767648        0.4516413015       -0.0159501149
 C          4.8629787150        1.3711529565       -0.0228368204
 C          6.0605852818        1.0363040624        0.5880053971
 C          6.2053407383       -0.2043814579        1.1917257376
 C          5.1609657115       -1.1162481944        1.1891791505
 C          3.9593748819       -0.7871637812        0.5809285515
 H          3.1212205603       -1.4655165000        0.5514631691
 H          5.2755084255       -2.0806746367        1.6571943530
 H          7.1388178925       -0.4631935001        1.6659825276
 H          6.8757281131        1.7417328051        0.5915009743
 H          4.7062000878        2.3189275227       -0.5099689785
 H          1.6395207343        1.6841148140        1.1942151302
 H          1.2293033788        3.9232968767       -1.5823529994
 H         -1.0091990295        4.5244033200       -2.4685487643
 H         -3.0171196204        3.3643713962       -1.6414613307
 H         -3.9630043272        1.5624076124       -0.4710071246
 C         -3.6481263338        1.7522151737        1.6287034983
 C         -2.9045710009        2.6565757474        2.5612861738
 C         -4.1472980756        3.1439895794        1.8834572750
 H         -5.0442802194        3.2735845824        2.4694990829
 H         -4.0305067971        3.8634474109        1.0868168806
 H         -2.9411757976        2.4248202360        3.6147245290
 H         -1.9577034047        3.0595145325        2.2375139108
 H         -4.2059691590        0.9434546591        2.0884305278
