  62
        -98.93182492
 C          2.2922117817       -0.9979834801       -0.0275980420
 C          3.6599903561       -1.1438848697       -0.3665625204
 C          4.6223425946       -0.2325725567        0.2822246883
 C          4.1522710713        0.7070364712        1.1229722173
 C          4.9232936232        1.7684980119        1.8618715680
 C          5.3562095739        2.9290776638        0.9519046770
 C          5.9329071380        2.5079814347       -0.3971898009
 H          5.1918466669        1.9118140539       -0.9329884803
 H          6.1019838174        3.4154483226       -0.9829865424
 C          7.2519422910        1.7416732596       -0.3313487884
 H          7.5914941428        1.5933810314       -1.3596600013
 H          7.9976596388        2.3554224792        0.1787561900
 C          7.1976005859        0.3732722123        0.3514358010
 H          7.1836350368        0.4738328564        1.4333921789
 H          8.1238289170       -0.1519836064        0.1007789136
 C          6.0516588133       -0.5220712646       -0.1088286371
 H          6.2487453097       -1.5448294311        0.2351086371
 H          6.0595434643       -0.5817759515       -1.2031551025
 H          6.0874109387        3.5346268470        1.4901575507
 H          4.4789532624        3.5516486825        0.7586763684
 H          4.2554386878        2.1617796435        2.6315835744
 H          5.7810574191        1.3276284780        2.3611799351
 O          2.8221557317        0.8387078277        1.3901420865
 C          1.8608016238        0.0068900245        0.8389082975
 O          0.6998542644        0.2698116094        1.2055700430
 O          4.0721304584       -2.0055089682       -1.1892113083
 C          1.3029974905       -1.9328300538       -0.7012968786
 C          0.1691694344       -1.1368166828       -1.2946084154
 C          0.4094254774       -0.3628895805       -2.4264479189
 C         -0.5939812795        0.4100325463       -2.9781354325
 C         -1.8588080276        0.4267976492       -2.4160748860
 C         -2.1060050988       -0.3336578428       -1.2818691191
 C         -1.0958105795       -1.1140989839       -0.7318175598
 H         -1.2908233303       -1.6820971098        0.1643891497
 N         -3.3901064323       -0.3507097626       -0.7047999241
 S         -4.2859284113        1.0778306963       -0.6521816093
 O         -4.7997334488        1.3429985084       -1.9735676779
 O         -3.5208610684        2.1461919171       -0.0484404575
 C         -5.6196433738        0.5772204924        0.4184049314
 C         -6.7117453982       -0.0640761666       -0.1346247491
 C         -7.7365718700       -0.4813126287        0.6995705331
 C         -7.6523282884       -0.2525436821        2.0649319733
 C         -6.5503267693        0.3932137511        2.6053234276
 C         -5.5211553656        0.8121678089        1.7766550235
 H         -4.6493562766        1.3242761129        2.1525225536
 H         -6.4883346034        0.5717794471        3.6668261517
 H         -8.4511744829       -0.5772941505        2.7127534039
 H         -8.5958917726       -0.9819997329        0.2836183247
 H         -6.7360607078       -0.2120185498       -1.2014862387
 H         -3.3791321345       -0.7883419332        0.2069029038
 H         -2.6469397557        1.0331835486       -2.8318739961
 H         -0.3928115200        1.0091937312       -3.8538671536
 H          1.3997441826       -0.3658685851       -2.8617188332
 H          1.8755511557       -2.3771748420       -1.5319947031
 C          0.8339832232       -3.0916515962        0.1652809717
 C          1.7682796003       -3.7414202243        1.1404488063
 C          0.5871986596       -2.9658946643        1.6378136388
 H         -0.2399982512       -3.5150613084        2.0641267918
 H          0.7557844650       -2.0050253776        2.0979994585
 H          1.7545850437       -4.8171791174        1.2291754625
 H          2.7499437987       -3.3050061182        1.2539832301
 H          0.1707366028       -3.7550168199       -0.3819033170
