  62
        -98.93669799
 C          1.9225366742        0.7297196039       -0.0592344192
 C          2.9654634145        0.6746276745        0.8998443377
 C          4.1023358635       -0.2163318444        0.6124617539
 C          4.1048354529       -0.9303524051       -0.5281308711
 C          5.0922197119       -1.9415343448       -1.0723558512
 C          6.4872180006       -2.0734186686       -0.4671070050
 C          7.3998068416       -0.8689440138       -0.6959335068
 H          8.3243457476       -1.0299924491       -0.1372871914
 H          7.6562629658       -0.8247012821       -1.7574939899
 C          6.8137608910        0.4861134075       -0.3072729668
 H          5.9416460508        0.7001666759       -0.9284946363
 H          7.5630274869        1.2504582911       -0.5306655167
 C          6.4243645876        0.6335752304        1.1623074590
 H          7.2788639353        0.3874863521        1.7956072952
 H          6.1737591517        1.6841293493        1.3324101049
 C          5.2189264073       -0.2077523509        1.6163133003
 H          5.5168636630       -1.2228818820        1.8680200408
 H          4.8113871146        0.2481893269        2.5232907393
 H          6.4175719869       -2.3039011979        0.5919230659
 H          6.9545182155       -2.9370651043       -0.9481987028
 H          5.1847968354       -1.7224867255       -2.1409981171
 H          4.5907487786       -2.9132168154       -1.0004776956
 O          3.0732290603       -0.8571059449       -1.4170090745
 C          1.9682028020       -0.0399759795       -1.2203765854
 O          1.1325417613       -0.1110617844       -2.1413190665
 O          2.9481057635        1.3504653091        1.9632770895
 C          0.7705039129        1.6728224204        0.2408374070
 C         -0.3893478230        0.9532717431        0.8800679019
 C         -0.9746073081        1.4361322690        2.0446368241
 C         -2.0479174257        0.7779445959        2.6204055115
 C         -2.5624052791       -0.3693547542        2.0444430249
 C         -1.9870790170       -0.8574730627        0.8777706983
 C         -0.9099852651       -0.1975529903        0.3037482815
 H         -0.4697612010       -0.5805614032       -0.6050619987
 N         -2.5120675959       -2.0140593487        0.2734487604
 S         -4.1722973053       -2.0719128732        0.0568492103
 O         -4.8021335748       -2.4726914912        1.2905756798
 O         -4.3827719821       -2.9486471191       -1.0730842888
 C         -4.6418202498       -0.3983096256       -0.3444467436
 C         -5.4210191565        0.3297736879        0.5315271771
 C         -5.7278067507        1.6449170258        0.2208558218
 C         -5.2500964013        2.2067734107       -0.9527478057
 C         -4.4736907451        1.4603973810       -1.8259491793
 C         -4.1630119179        0.1452372161       -1.5201665679
 H         -3.5616970316       -0.4622023020       -2.1786141482
 H         -4.1009119214        1.8990057076       -2.7375080214
 H         -5.4823585644        3.2325293274       -1.1910947101
 H         -6.3336328646        2.2270850046        0.8962464212
 H         -5.7712589994       -0.1462351822        1.4326789372
 H         -2.0271742196       -2.2793062635       -0.5716167117
 H         -3.3923337577       -0.9001174900        2.4817505991
 H         -2.4880062341        1.1607035468        3.5282639666
 H         -0.5728932676        2.3257699534        2.5067737260
 H          1.1754966412        2.3706955223        0.9903626981
 C          0.3555172381        2.5029272000       -0.9673009070
 C         -0.9154204807        2.2926414980       -1.7279979861
 C         -0.7619317594        3.4975716925       -0.8525448811
 H         -0.6411732541        4.4654453654       -1.3144994680
 H         -1.3185557294        3.5118244290        0.0722047152
 H         -0.8787263199        2.4143547818       -2.7997581984
 H         -1.5826291400        1.5106657352       -1.4023366371
 H          1.2172114109        2.8060257344       -1.5544455931
