  62
        -98.94009155
 C         -2.2304639444       -1.0744573746       -0.4807877614
 C         -3.4578943971       -0.8064015610        0.1793379728
 C         -4.1491619610        0.4267374064       -0.2075726243
 C         -3.6096553919        1.2234061752       -1.1474939879
 C         -4.1985436061        2.5087554477       -1.6631241676
 C         -3.8856472487        3.7322991617       -0.7908472440
 C         -4.6371470939        3.7920872294        0.5397498171
 H         -5.7043897999        3.6615078600        0.3584512206
 H         -4.4948201937        4.7968577940        0.9423432632
 C         -4.1610513846        2.7709447188        1.5824995789
 H         -4.0411680582        3.2661199310        2.5487740840
 H         -3.1779586039        2.3885754442        1.2962449913
 C         -5.1095539112        1.5906126509        1.7927560672
 H         -6.0539977527        1.9490337854        2.2079770674
 H         -4.6557176911        0.9128324073        2.5200251561
 C         -5.4090458335        0.7875185355        0.5204103425
 H         -6.0764328957        1.3499126627       -0.1319918147
 H         -5.9022855764       -0.1432764258        0.8104620957
 H         -4.1458758839        4.6205802747       -1.3712225178
 H         -2.8091910472        3.7607757055       -0.6044902343
 H         -5.2785997261        2.4006169258       -1.7671611313
 H         -3.7672760355        2.6720602427       -2.6531038121
 O         -2.4397068022        0.9255974283       -1.7717288092
 C         -1.7097733424       -0.2125094379       -1.4469479762
 O         -0.6573900528       -0.3297860099       -2.1036478822
 O         -3.9579026893       -1.5709216326        1.0472129093
 C         -1.4830032941       -2.3291195414       -0.0570768781
 C         -0.3965492882       -1.9429310205        0.9185329684
 C         -0.6541152109       -2.0078111974        2.2850260612
 C          0.3071692660       -1.6295894270        3.2034913618
 C          1.5418929060       -1.1768294684        2.7759533229
 C          1.8092813332       -1.1050179568        1.4129494023
 C          0.8436816939       -1.4878813762        0.4920548232
 H          1.0577375283       -1.3930079260       -0.5604051038
 N          3.0711457404       -0.6771391942        0.9634215922
 S          3.1546741435        0.2993790611       -0.4144978170
 O          2.1939750044        1.3755132230       -0.3147144246
 O          3.0975219246       -0.5384371920       -1.5839651363
 C          4.8119913303        0.9365017489       -0.2301804908
 C          5.8728396003        0.1241536745       -0.5842515113
 C          7.1646269695        0.5960317686       -0.4145050414
 C          7.3738710389        1.8655865277        0.1037221576
 C          6.2999031604        2.6704386597        0.4523948626
 C          5.0051994705        2.2033062111        0.2868249336
 H          4.1391106823        2.7951531580        0.5365456412
 H          6.4650460617        3.6581631844        0.8516503563
 H          8.3801414458        2.2311043278        0.2340072301
 H          8.0018368497       -0.0259821292       -0.6870318826
 H          5.6596864162       -0.8503067244       -0.9915147530
 H          3.6293587044       -0.2833288260        1.7097807001
 H          2.2952403504       -0.8799201871        3.4900090666
 H          0.0926219755       -1.6834583066        4.2601042871
 H         -1.6267143784       -2.3421150256        2.6168181534
 H         -2.2238785344       -2.9259974496        0.4933894381
 C         -0.9698855091       -3.1583463276       -1.2145026426
 C         -0.6222333258       -4.5959087463       -0.9727440105
 C         -1.8375833169       -4.2434263851       -1.7753504028
 H         -1.8219872763       -4.4135057853       -2.8414229866
 H         -2.8077708379       -4.3909448823       -1.3236290092
 H          0.2319399895       -5.0104965160       -1.4856326474
 H         -0.7690210497       -4.9828552609        0.0243945836
 H         -0.3599679133       -2.6025132178       -1.9149524787
