  62
        -98.94501020
 C          2.3663022004        0.2266232573       -0.0941711197
 C          1.4193385317        0.6220395183        0.8747564623
 C          0.9271944762        2.0108674938        0.8066978523
 C          1.3883587393        2.8116559334       -0.1716905548
 C          1.0253655755        4.2453571291       -0.4590305303
 C         -0.3513273357        4.3949404035       -1.1229203557
 C         -1.4669174775        3.5733730474       -0.4824080333
 H         -2.3661478741        3.7094849582       -1.0905146059
 H         -1.2089455565        2.5139908412       -0.5411433636
 C         -1.8121667300        3.9536039116        0.9558649002
 H         -2.0868355333        5.0105224275        0.9885715418
 H         -2.6932540272        3.3713782945        1.2382306292
 C         -0.7222039792        3.6980553173        1.9998641898
 H         -1.1973144714        3.7487245117        2.9837193205
 H          0.0350380023        4.4773179444        1.9816771261
 C         -0.0674585667        2.3251133996        1.8981624893
 H          0.4551571047        2.1128892855        2.8385328330
 H         -0.8528704759        1.5645918315        1.8221162825
 H         -0.6224175580        5.4527887997       -1.1167574243
 H         -0.2632440519        4.0731577435       -2.1638390868
 H          1.0786290732        4.8346835609        0.4519178113
 H          1.7843953015        4.6263682382       -1.1464819611
 O          2.2945007320        2.3813989337       -1.0977260985
 C          2.7878489021        1.0923751882       -1.0997331200
 O          3.5878315702        0.8412478435       -2.0263985694
 H          0.7173072153       -0.9843344026       -1.6179962251
 C          0.6659657351       -1.8634619737       -0.9923941952
 C          1.7184902232       -2.1574557282       -0.1350336452
 C          1.6376051146       -3.3059039220        0.6423501899
 C          0.5134119024       -4.1121843840        0.5851212728
 C         -0.5588690703       -3.7796297266       -0.2226412257
 C         -0.4810522774       -2.6392907585       -1.0142944959
 N         -1.5494247350       -2.2439442625       -1.8444662835
 S         -2.2317742730       -0.7325007328       -1.6061312040
 O         -3.2758961406       -0.6358161748       -2.6037718547
 O         -1.2130926935        0.2837492092       -1.6454571476
 C         -2.9817909035       -0.8069942337        0.0116967360
 C         -4.3586664258       -0.8826726754        0.1022796226
 C         -4.9471037323       -0.9700569056        1.3533655222
 C         -4.1514027967       -0.9879362177        2.4892045681
 C         -2.7713097968       -0.9180549110        2.3807117002
 C         -2.1746906300       -0.8274727462        1.1317769236
 H         -1.1016687897       -0.7660391636        1.0318764898
 H         -2.1430077620       -0.9300919336        3.2570909014
 H         -4.6075736926       -1.0560495421        3.4642373466
 H         -6.0205414055       -1.0239810852        1.4381720742
 H         -4.9348334659       -0.8624701023       -0.8086444527
 H         -2.2857273012       -2.9324503127       -1.9198392658
 H         -1.4480440799       -4.3916252275       -0.2420398932
 H          0.4628029760       -5.0005911017        1.1959500622
 H          2.4505946973       -3.5647445165        1.3008350847
 C          2.8856920160       -1.2002909895       -0.0999966219
 H          3.4586482156       -1.3136248837       -1.0323544120
 C          3.8127578272       -1.4259883749        1.0768589024
 C          4.9434857539       -2.4040231396        0.9746753927
 C          5.2243919697       -0.9322333895        0.9885599938
 H          5.6757841573       -0.4989069957        1.8683826918
 H          5.5232711237       -0.4559439749        0.0657677297
 H          5.2074696771       -2.9811818610        1.8480019711
 H          5.0654551180       -2.9324103092        0.0412047344
 H          3.3053719264       -1.3234442513        2.0292809312
 O          0.9911444602       -0.1554502208        1.7700334563
