  62
        -98.93687261
 C         -1.8912457754       -0.0211620227       -0.4463484362
 C         -2.7887367871        0.7695647250        0.3075026525
 C         -4.1175450976        0.1852954463        0.5917179313
 C         -4.3952824021       -1.0548758240        0.1512411221
 C         -5.6762975481       -1.8332948897        0.2920998518
 C         -6.7724095485       -1.3501876965       -0.6715579380
 C         -6.9140344981        0.1661358192       -0.7751007975
 H         -5.9602893092        0.5938218248       -1.0893739800
 H         -7.6400618017        0.3783508923       -1.5644254384
 C         -7.3897805639        0.8633078922        0.4971610726
 H         -7.5294682104        1.9198944505        0.2546839840
 H         -8.3623223849        0.4579025061        0.7852739102
 C         -6.4494482119        0.7731194284        1.7008213089
 H         -6.7939924121        1.5051138534        2.4372166024
 H         -6.5169848564       -0.1999768672        2.1797012198
 C         -4.9935020668        1.1134060044        1.3991682295
 H         -4.9508537575        2.0845749261        0.8933762610
 H         -4.4666801706        1.2609730050        2.3495536938
 H         -6.5367303331       -1.7311192362       -1.6683777134
 H         -7.7226431663       -1.7872497509       -0.3600524573
 H         -5.4380400105       -2.8725540658        0.0545955013
 H         -6.0222807936       -1.8005774666        1.3209374894
 O         -3.4930331248       -1.7882874852       -0.5626775766
 C         -2.2431774855       -1.3017804069       -0.8811976737
 O         -1.5424405641       -2.0885708049       -1.5514067630
 O         -2.5270911017        1.9243211401        0.7362207499
 C         -0.4952984906        0.4414862405       -0.8365812100
 C          0.4675911499        0.2721979692        0.3144095923
 C          0.3602798836        1.0322360639        1.4753642876
 C          1.2471368235        0.8448929177        2.5190103694
 C          2.2678507357       -0.0848128353        2.4201649051
 C          2.3841774313       -0.8488933154        1.2660111084
 C          1.4818725397       -0.6707521639        0.2255575537
 H          1.5758676357       -1.2844141219       -0.6582413180
 N          3.4132458579       -1.8019030278        1.1330017540
 S          4.4392655294       -1.6777363213       -0.1845573644
 O          3.7220039351       -1.9625605280       -1.4001197524
 O          5.5516632403       -2.5470596808        0.1273777870
 C          4.9710035355        0.0247734749       -0.1606480552
 C          6.1091489586        0.3569654808        0.5481688549
 C          6.4809291164        1.6888723079        0.6336634809
 C          5.7044425415        2.6623856411        0.0232977097
 C          4.5632253562        2.3130289428       -0.6820904587
 C          4.1905867286        0.9817459450       -0.7779382066
 H          3.3119018966        0.6729532032       -1.3198078549
 H          3.9573151766        3.0683630097       -1.1561060133
 H          5.9902244356        3.6998362518        0.0956339350
 H          7.3700774559        1.9636656966        1.1779155693
 H          6.6846644209       -0.4328451729        1.0034053469
 H          3.9576544965       -1.9292416666        1.9748663463
 H          2.9640814352       -0.2261140953        3.2331571049
 H          1.1480607226        1.4351956850        3.4171952256
 H         -0.4394048517        1.7514917154        1.5588366706
 H         -0.1765215255       -0.2404140781       -1.6372280051
 C         -0.4693071146        1.8574998162       -1.3781056499
 C          0.6141862993        2.2518808847       -2.3339380673
 C         -0.7940616196        2.0904415172       -2.8214168046
 H         -1.3559654431        2.9730609877       -3.0874275730
 H         -1.0284292520        1.2259377076       -3.4264075959
 H          1.0219853367        3.2486568021       -2.2682450640
 H          1.3321486397        1.4969596138       -2.6194309711
 H         -0.8134335689        2.5981893946       -0.6692531033
