  62
        -98.93392836
 C         -2.2902193762       -1.4718069277        0.1013095626
 C         -2.8612120141       -0.6257102037        1.0870741469
 C         -3.6250689732        0.5294366965        0.6015844125
 C         -3.7561721260        0.7264284216       -0.7219698393
 C         -4.5321066911        1.8265458628       -1.3957109345
 C         -3.9918909451        3.2546925407       -1.1867963936
 C         -4.6481937780        4.0137097856       -0.0267761772
 H         -4.8024207130        5.0511065128       -0.3303726311
 H         -5.6364648579        3.5897535066        0.1552955473
 C         -3.8566468497        4.0464319985        1.2841042419
 H         -4.5307700850        4.3899073002        2.0717577916
 H         -3.0518204885        4.7798802335        1.1959339709
 C         -3.2213239699        2.7250115225        1.7189161862
 H         -2.3293858500        2.5291683671        1.1172008550
 H         -2.8756381336        2.8366424317        2.7486048819
 C         -4.1495559208        1.4984438875        1.6204907810
 H         -4.1673235730        0.9683720782        2.5747539114
 H         -5.1657359845        1.8028338111        1.3746434305
 H         -4.1868801918        3.8054441608       -2.1085358460
 H         -2.9097421478        3.2180754207       -1.0570870686
 H         -4.5107054325        1.5889467146       -2.4612625830
 H         -5.5712654754        1.7790331458       -1.0625772077
 O         -3.2013375870       -0.1113876223       -1.6378190303
 C         -2.4325691882       -1.2055615149       -1.2601819951
 O         -1.9604014170       -1.8346217647       -2.2273777824
 H          0.1114810561       -1.5529935330       -1.2770004169
 C          0.6328798552       -1.6673066521       -0.3372009434
 C         -0.0275002027       -2.2386361532        0.7427189411
 C          0.6579792239       -2.3707782732        1.9438991828
 C          1.9687084624       -1.9394555760        2.0585961699
 C          2.6182073976       -1.3615715897        0.9820559976
 C          1.9397341886       -1.2237483668       -0.2216110117
 N          2.5858245080       -0.5981391793       -1.3168197123
 S          2.7095238868        1.0754926904       -1.1397690004
 O          1.5893590698        1.6095493889       -0.3951168776
 O          2.8985535517        1.5972073628       -2.4757846384
 C          4.2144326641        1.2712771946       -0.2109511632
 C          5.4019143917        0.9076474024       -0.8161196326
 C          6.5826122317        1.0365182521       -0.1024493036
 C          6.5553945629        1.5243624998        1.1959090229
 C          5.3550187162        1.8868993396        1.7878894037
 C          4.1698582260        1.7599075789        1.0797951807
 H          3.2119500312        2.0229729190        1.4992958179
 H          5.3357523585        2.2655945094        2.7971740591
 H          7.4753561986        1.6226760162        1.7502305569
 H          7.5179320918        0.7558586863       -0.5591397048
 H          5.3751166632        0.5382693747       -1.8276940423
 H          2.1140787748       -0.7863878858       -2.1920865501
 H          3.6366666251       -1.0186603479        1.0651653820
 H          2.4879545358       -2.0479443692        2.9983183249
 H          0.1489003240       -2.7957764705        2.7964611865
 C         -1.4723367867       -2.6472511936        0.6106024801
 H         -1.8568192831       -2.8344074377        1.6255833126
 C         -1.6727411182       -3.9218917021       -0.1964601016
 C         -0.6016850442       -4.5561644354       -1.0277923154
 C         -1.0271467175       -5.1984443726        0.2561586245
 H         -1.6008544044       -6.1116841843        0.2161132492
 H         -0.3459043835       -5.1378410219        1.0914675840
 H          0.3671781784       -4.0834803703       -1.0646462088
 H         -0.8989133269       -5.0069643369       -1.9623799520
 H         -2.6836632905       -3.9982347609       -0.5837135451
 O         -2.7457480096       -0.8386843787        2.3234243301
