  62
        -98.93736290
 C         -1.9223905713       -1.3968007018        0.0091088365
 C         -2.5591229464       -0.6907310423        1.0563759679
 C         -3.7665475326        0.0603432821        0.6890131167
 C         -4.1931442580        0.0494815020       -0.5869239799
 C         -5.4339734843        0.7105585178       -1.1268932076
 C         -5.4649175340        2.2504979929       -1.0806813002
 C         -6.1437221285        2.8327914583        0.1653797295
 H         -6.7410742650        3.6969865362       -0.1321792123
 H         -6.8397101288        2.0935251491        0.5637491948
 C         -5.2038458998        3.3027535249        1.2797537207
 H         -4.7788790562        4.2706451283        1.0036427004
 H         -5.8018113866        3.4520620742        2.1813739946
 C         -4.0389938987        2.3685816267        1.6075380546
 H         -3.2767354574        2.4470194153        0.8280471693
 H         -3.5721431923        2.7172644144        2.5311060336
 C         -4.4268369478        0.8843255249        1.7561032257
 H         -4.0692241233        0.5005224096        2.7136984078
 H         -5.5084293111        0.7640956193        1.7197015470
 H         -4.4514060796        2.6385915545       -1.1807400135
 H         -6.0238453939        2.5809457680       -1.9576580698
 H         -5.5055989461        0.3850365369       -2.1667047447
 H         -6.3013673014        0.3155781002       -0.5930527264
 O         -3.5388440729       -0.6274695771       -1.5696340174
 C         -2.3834272912       -1.3491949756       -1.3067219428
 O         -1.8798719884       -1.8921060281       -2.3072005103
 O         -2.1380603943       -0.6884026993        2.2452979404
 C         -0.6666987115       -2.1927162162        0.3183740957
 C          0.5075654566       -1.5891326935       -0.4124958000
 C          1.3658922961       -2.3139785125       -1.2274192437
 C          2.4107782207       -1.6824949151       -1.8814591290
 C          2.6296517291       -0.3263833553       -1.7292078498
 C          1.7900512012        0.4041983110       -0.8965022164
 C          0.7451597264       -0.2297106069       -0.2431363856
 H          0.0890040610        0.3413043787        0.4022119540
 N          2.0142095643        1.7789156664       -0.7163383837
 S          3.5883940163        2.3040879028       -0.5059423772
 O          3.4793083768        3.5225468995        0.2655027213
 O          4.2344078370        2.4294075092       -1.7888187387
 C          4.3895711021        1.0274957400        0.4493930759
 C          5.4985901268        0.3817788201       -0.0577911586
 C          6.0895404887       -0.6238547463        0.6904587658
 C          5.5609437882       -0.9671615378        1.9248578125
 C          4.4479244950       -0.3065513549        2.4224774467
 C          3.8547511219        0.7013293564        1.6800646115
 H          2.9906770472        1.2353408034        2.0424679166
 H          4.0372687586       -0.5742382937        3.3828625255
 H          6.0178346923       -1.7536477840        2.5044238321
 H          6.9561390957       -1.1376562401        0.3068976771
 H          5.8737097827        0.6779029536       -1.0238950497
 H          1.3859771290        2.2174701083       -0.0598944088
 H          3.4259075483        0.1813230226       -2.2488590084
 H          3.0617950474       -2.2552487377       -2.5238852086
 H          1.2104352327       -3.3712187730       -1.3626911948
 H         -0.4991156038       -2.0601024612        1.3975123342
 C         -0.8765649858       -3.6644570330        0.0360137451
 C         -0.0762808266       -4.6920934011        0.7773869508
 C         -1.5329477162       -4.5152705457        1.0803761617
 H         -2.2253244640       -5.2797687831        0.7611947132
 H         -1.8104837749       -4.0371038686        2.0085170414
 H          0.2319190127       -5.5832865806        0.2521221182
 H          0.6384695238       -4.3384361630        1.5046852867
 H         -1.1322586438       -3.8591908246       -0.9991601200
