  62
        -98.94084421
 C         -2.5725668185       -0.2243745068       -0.4010180786
 C         -2.0050260416       -0.7319211316        0.7901435240
 C         -1.3626912577       -2.0589789747        0.7107628374
 C         -1.3955274069       -2.7264461002       -0.4573300250
 C         -0.8114614009       -4.0747654485       -0.7938285733
 C          0.7090920329       -4.0359094549       -0.9890119370
 C          1.4752492830       -3.3350267472        0.1286580294
 H          2.5366604097       -3.3588267734       -0.1354133414
 H          1.1836890707       -2.2834332641        0.1621480273
 C          1.3223611902       -3.9584897861        1.5149964626
 H          1.5916996374       -5.0159575165        1.4646429703
 H          2.0439133721       -3.4593517531        2.1661509657
 C         -0.0587169689       -3.8293425176        2.1669443325
 H          0.0723662537       -3.9957697616        3.2399651778
 H         -0.7421821000       -4.5993814738        1.8168702061
 C         -0.7037134908       -2.4564945840        2.0081323892
 H         -1.4760755532       -2.3337765121        2.7765225038
 H          0.0387588695       -1.6758166664        2.2146455075
 H          1.0669170352       -5.0626029290       -1.0923772828
 H          0.9213350179       -3.5041956230       -1.9202864096
 H         -1.0792792985       -4.8033138349       -0.0342973318
 H         -1.2742822791       -4.3849674316       -1.7338136523
 O         -2.0037012226       -2.2158744223       -1.5697314506
 C         -2.5556572329       -0.9511889394       -1.5877686439
 O         -3.0080901812       -0.5962875631       -2.6978760866
 H         -0.5236801954        1.0466833477       -0.9822933130
 C         -0.7448181406        1.9044167035       -0.3637027464
 C         -2.0559818354        2.1548832060        0.0175854352
 C         -2.3148212001        3.2780171853        0.7932505999
 C         -1.2778487752        4.0995778878        1.2013296026
 C          0.0329875303        3.8092844338        0.8695049705
 C          0.2997253409        2.6972956711        0.0793073304
 N          1.6158245866        2.3534025621       -0.2896745150
 S          1.9915700961        0.7013970128       -0.2303522780
 O          1.5341707518        0.0723375913       -1.4447743947
 O          1.5273942709        0.1323042473        1.0128453997
 C          3.7733652428        0.7779486062       -0.2432877490
 C          4.4078775712        1.0981439898       -1.4287974177
 C          5.7905758986        1.1870060807       -1.4454390257
 C          6.5118303253        0.9543273994       -0.2834257960
 C          5.8614025561        0.6310654143        0.8976855255
 C          4.4780228872        0.5430950134        0.9216670629
 H          3.9278888989        0.2900425237        1.8137877048
 H          6.4243635544        0.4471427964        1.7985015850
 H          7.5880107164        1.0229640448       -0.2996571755
 H          6.2997713888        1.4358047649       -2.3624818034
 H          3.8050974419        1.2601115863       -2.3072348087
 H          2.3063821068        2.8885932137        0.2213125429
 H          0.8420850218        4.4328723410        1.2187441825
 H         -1.4920613242        4.9666300146        1.8077730332
 H         -3.3267751448        3.5019405231        1.0895569657
 C         -3.1269379719        1.1879804341       -0.4313941781
 H         -3.3670323230        1.3990418341       -1.4847455264
 C         -4.3972402909        1.2829560264        0.3889813153
 C         -5.4874472169        2.2328005664       -0.0048531600
 C         -5.6733514025        0.7583407193       -0.1950741801
 H         -6.3595853426        0.2338663773        0.4525796726
 H         -5.6277229824        0.3591208547       -1.1981652952
 H         -6.0521439131        2.7209584164        0.7751374548
 H         -5.3300237790        2.8385621618       -0.8844967470
 H         -4.2197061540        1.1100618196        1.4443096144
 O         -2.0288128067       -0.1041586208        1.8822532099
