  62
        -98.93549009
 C          1.6847687702        1.2290772100        0.5062475195
 C          1.9490307598        0.0681637594       -0.2548853997
 C          3.3701965597       -0.2866817809       -0.4440924798
 C          4.3197559899        0.5134940193        0.0728996293
 C          5.8193429099        0.3594293991        0.0249888489
 C          6.4317128294       -0.0821892820       -1.3128322209
 C          6.9717818093       -1.5134392021       -1.2931702300
 H          7.4518117295       -1.6904628714       -0.3284524100
 H          7.7419123090       -1.6070019428       -2.0620450201
 C          5.9329925390       -2.6046381421       -1.5465753388
 H          6.4145468290       -3.5685651321       -1.3657610782
 H          5.6338987987       -2.5833651529       -2.5967885287
 C          4.6717895493       -2.5178995313       -0.6849599985
 H          4.9272452996       -2.2513669205        0.3401940812
 H          4.2191556092       -3.5113863712       -0.6515867076
 C          3.6185957093       -1.5429318016       -1.2331797789
 H          2.6437284192       -2.0397430215       -1.2741694283
 H          3.8609381690       -1.2729589524       -2.2650522692
 H          7.2649765095        0.5871390677       -1.5327397117
 H          5.7025900792        0.0373998374       -2.1124088208
 H          6.2119554701        1.3392741893        0.3062809780
 H          6.1190806700       -0.3332568003        0.8157038494
 O          4.0149834603        1.6367427499        0.7851022885
 C          2.7086922704        2.0130444603        1.0350020686
 O          2.5908290508        3.0445621009        1.7266710778
 H         -2.1347061500        0.3551124403        0.2415798313
 C         -1.6595586498        0.0034233410        1.1409196314
 C         -0.4513450996        0.5439256311        1.5506587906
 C          0.1304217307        0.0659221220        2.7228792108
 C         -0.4763474193       -0.9342217474        3.4561287118
 C         -1.6751224195       -1.4828255175        3.0337935226
 C         -2.2674667397       -1.0112558884        1.8695357424
 N         -3.5048952399       -1.5166873085        1.4419313132
 S         -3.7630499905       -1.8753389598       -0.1756107965
 O         -4.9174163406       -2.7507407696       -0.1573765855
 O         -2.5803410407       -2.4038652004       -0.8111004864
 C         -4.2401940705       -0.3271239103       -0.9117974976
 C         -3.5985312808        0.1120921487       -2.0525949281
 C         -4.0102966608        1.3003363783       -2.6362369089
 C         -5.0504085805        2.0231467589       -2.0712976892
 C         -5.6830533102        1.5679561499       -0.9241184986
 C         -5.2787439502        0.3794727603       -0.3379045378
 H         -5.7485946100       -0.0115685589        0.5488245726
 H         -6.4892304700        2.1349386304       -0.4874446388
 H         -5.3667704405        2.9479261086       -2.5277958698
 H         -3.5166518710        1.6564456076       -3.5267576993
 H         -2.7851646010       -0.4756946617       -2.4491735879
 H         -3.8845762999       -2.2431342780        2.0322168638
 H         -2.1483438594       -2.2697797470        3.6016524733
 H         -0.0113888590       -1.2956578267        4.3611830219
 H          1.0702466708        0.4917992221        3.0483688002
 C          0.2530607903        1.6447062205        0.7945739196
 H          0.3242908106        2.5177408810        1.4599447589
 C         -0.4552681600        2.0610063096       -0.4767295305
 C         -1.5835468199        3.0450580598       -0.4119163610
 C         -0.2628276700        3.4556765091       -0.9885960117
 H         -0.1878635503        3.6066080783       -2.0548753518
 H          0.3702578103        4.1125748195       -0.4096859224
 H         -1.8513942395        3.4294529906        0.5604937288
 H         -2.4201269701        2.9159200193       -1.0815702506
 H         -0.5085449503        1.2619639590       -1.2074837799
 O          1.0429595495       -0.6500225309       -0.7539647189
