  62
        -98.94023709
 C         -2.3619645756       -0.0588471996       -0.2654146088
 C         -1.6342192197       -0.5062158733        0.8631506798
 C         -1.3773392446       -1.9511211705        0.9236851787
 C         -1.7262813854       -2.7339735247       -0.1128104310
 C         -1.5233333954       -4.2217287399       -0.2108313262
 C         -0.1110308484       -4.6237752555       -0.6570574007
 C          0.9700269414       -4.4934631823        0.4162265838
 H          0.6374672055       -4.9924657168        1.3276549618
 H          1.8482071945       -5.0295655490        0.0506098675
 C          1.3770701822       -3.0485714223        0.7368896742
 H          2.4669866696       -2.9848049736        0.7992943153
 H          1.0719258770       -2.3888369928       -0.0793425270
 C          0.8195661993       -2.5096910583        2.0533269405
 H          1.2149605778       -3.0987428105        2.8843725206
 H          1.1709492345       -1.4833852782        2.1696549385
 C         -0.7113639708       -2.5060596454        2.1488388466
 H         -1.0743509466       -3.5169976981        2.3372167419
 H         -0.9965516321       -1.8708313770        2.9913674761
 H          0.1664878545       -4.0197029451       -1.5247947937
 H         -0.1534358688       -5.6680720002       -0.9761713689
 H         -1.7516074391       -4.6904352508        0.7471556458
 H         -2.2370687726       -4.5832788075       -0.9544053172
 O         -2.3432468963       -2.2488465568       -1.2232828851
 C         -2.6838014035       -0.9116195821       -1.3200530254
 O         -3.2705097976       -0.6049628004       -2.3808283235
 H         -0.6711482540        1.0565181160       -1.8812443477
 C         -0.4865547776        1.8609817866       -1.1834328242
 C         -1.4894215515        2.2341277320       -0.2895275719
 C         -1.2108217614        3.2764841636        0.5849528641
 C          0.0257773070        3.9038924131        0.5677364689
 C          1.0294854185        3.4897477996       -0.2860821227
 C          0.7674327707        2.4424037644       -1.1619396061
 N          1.7621323749        1.9116996046       -2.0135299300
 S          2.2453647808        0.3456959141       -1.6457490042
 O          3.3048846416        0.0433705328       -2.5842658510
 O          1.1076801145       -0.5361826296       -1.6612915291
 C          2.9339405644        0.4891469133       -0.0058821976
 C          2.0897076501        0.6806480905        1.0700303955
 C          2.6461652470        0.8880264808        2.3239556078
 C          4.0228547636        0.8958806471        2.4819269005
 C          4.8563684660        0.6981463392        1.3910183549
 C          4.3088866641        0.5015149087        0.1339762601
 H          4.9149394323        0.3494838198       -0.7446115552
 H          5.9273144972        0.7012867347        1.5148725105
 H          4.4468596995        1.0560203509        3.4605825055
 H          1.9892507177        1.0395461649        3.1657802645
 H          1.0198035935        0.6583842297        0.9322667981
 H          2.5838996462        2.4964184821       -2.0904324818
 H          2.0022953078        3.9575270686       -0.2715991484
 H          0.2142777285        4.7143703621        1.2550994856
 H         -1.9360150832        3.6082139624        1.3050387532
 C         -2.7500350093        1.4103658179       -0.4097834492
 H         -3.0847850168        1.5130285103       -1.4561691325
 C         -3.9801316464        1.6708505630        0.4458088074
 C         -3.9706765425        2.0297420949        1.8984317024
 C         -4.4685364933        3.0188136824        0.8851943749
 H         -5.5325931951        3.1995826380        0.8409425551
 H         -3.8758663341        3.8873645690        0.6507173034
 H         -4.6962498139        1.5458003650        2.5364652344
 H         -3.0155374941        2.1741445419        2.3753939741
 H         -4.7584959889        0.9716430276        0.1445887740
 O         -1.2259955584        0.2526650445        1.7790734906
