  62
        -98.94050516
 C         -2.2085270694       -1.1246529096        0.3702180673
 C         -2.5050785481       -0.2327069964       -0.6891582671
 C         -3.3342168163        0.9315342006       -0.3349864137
 C         -3.7024067995        1.1227745553        0.9439095176
 C         -4.5661996880        2.2482747005        1.4328246856
 C         -6.0509566375        1.8587538242        1.4192655410
 C         -6.5142248758        1.2396219351        0.1006694161
 H         -6.0129797319        0.2787832676       -0.0365173714
 H         -7.5826683812        1.0346456530        0.1953552667
 C         -6.2695192800        2.1187475906       -1.1336669740
 H         -7.1672508178        2.1075322690       -1.7552760083
 H         -6.1015713612        3.1513831171       -0.8257803281
 C         -5.1095483854        1.6600818217       -2.0192997250
 H         -5.1632541543        2.2111623753       -2.9619706085
 H         -5.2251839824        0.5988835823       -2.2537040997
 C         -3.7037783955        1.8762061809       -1.4445080648
 H         -2.9840284097        1.6913621406       -2.2476566176
 H         -3.5931051424        2.9131097968       -1.1198040284
 H         -6.2256188339        1.1345676094        2.2182469160
 H         -6.6429026551        2.7504373751        1.6331284934
 H         -4.2702956556        2.4866111267        2.4559549051
 H         -4.4025167823        3.1229951838        0.8061272643
 O         -3.3573278972        0.2727168982        1.9441019938
 C         -2.6191513768       -0.8678431818        1.6821430796
 O         -2.3952351178       -1.5725444849        2.6862894087
 H          0.0361917159       -0.5775619611       -1.2021372895
 C          0.6492207090       -1.0849176614       -0.4711609916
 C          0.0797715339       -2.0724144459        0.3220953496
 C          0.8783269757       -2.7130172542        1.2610454850
 C          2.2122669077       -2.3698883692        1.4008091016
 C          2.7744078426       -1.3838334578        0.6099186799
 C          1.9829882017       -0.7356607930       -0.3295030589
 N          2.5451357000        0.2773053154       -1.1340523452
 S          3.1785011967        1.6003218526       -0.3092467873
 O          2.5059545633        1.8055806085        0.9541074997
 O          3.1319105944        2.6991186552       -1.2493416434
 C          4.8778826768        1.1469310367       -0.0324228929
 C          5.3881704554        1.1382453084        1.2508019430
 C          6.7164863408        0.7895073899        1.4408853766
 C          7.5057866881        0.4581313846        0.3502136366
 C          6.9780332780        0.4733302030       -0.9325447386
 C          5.6516165284        0.8222521121       -1.1297877027
 H          5.2027061819        0.8499960030       -2.1085829757
 H          7.5950178224        0.2145259153       -1.7778494445
 H          8.5385441343        0.1862099791        0.5009837456
 H          7.1281201976        0.7770342604        2.4373220824
 H          4.7335019942        1.3965645004        2.0678762944
 H          1.9098337633        0.5993587223       -1.8518329306
 H          3.8108969220       -1.1085627280        0.7184224341
 H          2.8202101448       -2.8732379246        2.1368817533
 H          0.4413446004       -3.4684997773        1.8975394716
 C         -1.3868763205       -2.3932095863        0.1901617745
 H         -1.6625600174       -3.0347046216        1.0416862895
 C         -1.7332732912       -3.1535390207       -1.0832963189
 C         -0.7782974527       -3.3577526263       -2.2175928878
 C         -1.1312705721       -4.5064759407       -1.3247694204
 H         -1.7613166425       -5.2933082145       -1.7107118330
 H         -0.3794436452       -4.8427303501       -0.6265819867
 H          0.2116966636       -2.9373523872       -2.1376899092
 H         -1.1818557007       -3.3312107992       -3.2184035116
 H         -2.7768695822       -3.0323408446       -1.3547873558
 O         -2.1052766671       -0.3763269922       -1.8746181635
