  62
        -98.94702882
 C         -2.2763751535       -0.5448407407       -0.4792217179
 C         -1.4526313293        0.3908245200       -1.1493032584
 C         -1.7493875609        1.8096592697       -0.9021431293
 C         -2.7390895133        2.1448830549       -0.0568558238
 C         -3.1128617627        3.5480784256        0.3219817603
 C         -2.3577070802        4.0138225872        1.5740529804
 C         -0.8477047069        3.7793360848        1.5161022091
 H         -0.4196476378        4.1957278034        2.4312649171
 H         -0.6411973061        2.7059211693        1.5330680616
 C         -0.1516584886        4.4022490469        0.2980575215
 H         -0.7869394183        5.1724364123       -0.1422630280
 H          0.7664979970        4.8887987637        0.6343186247
 C          0.2492539648        3.3883839035       -0.7749386794
 H          0.9522968002        3.8719321048       -1.4589477104
 H          0.7705246441        2.5557687775       -0.2958150437
 C         -0.9026958502        2.8249141393       -1.6175604661
 H         -0.4663306692        2.3035561080       -2.4744337417
 H         -1.5197629548        3.6442574941       -1.9929048334
 H         -2.5551223870        5.0781527032        1.7179042863
 H         -2.7531052465        3.4749953179        2.4384383547
 H         -4.1848113294        3.5728795237        0.5268525988
 H         -2.8970104391        4.2129404092       -0.5122321675
 O         -3.5038625452        1.2225822559        0.5817878431
 C         -3.2840914390       -0.1303614426        0.3970872387
 O         -4.0542486956       -0.8643799778        1.0507935063
 O         -0.5126906419        0.0851138383       -1.9312820496
 C         -2.1063595774       -2.0538234608       -0.5865171714
 C         -1.0860561614       -2.5246123150        0.4235061587
 C         -1.4014198446       -3.5042519885        1.3568383988
 C         -0.4748647038       -3.8892453506        2.3097484794
 C          0.7649775460       -3.2800783516        2.3695858130
 C          1.0899979593       -2.2970211720        1.4402461243
 C          0.1792275963       -1.9555419925        0.4530105072
 H          0.4419054759       -1.2044178003       -0.2713437675
 N          2.3313814037       -1.6455969441        1.4897100072
 S          2.4486860497        0.0254490004        1.3037013750
 O          3.3258966223        0.4549320654        2.3762554082
 O          1.1485496583        0.6457658265        1.2616841170
 C          3.3315261575        0.2025622890       -0.2338288541
 C          4.7119563169        0.1447421664       -0.1764655627
 C          5.4422450744        0.2539512523       -1.3475877942
 C          4.7830646051        0.4187676688       -2.5567409845
 C          3.3992788829        0.4750368345       -2.5978500074
 C          2.6608426429        0.3648470435       -1.4284856449
 H          1.5824088039        0.4046612537       -1.4501678112
 H          2.8800474832        0.6022425989       -3.5344182386
 H          5.3492535140        0.5049030978       -3.4708803297
 H          6.5190195709        0.2111307724       -1.3146855705
 H          5.1823613876        0.0306960729        0.7861756567
 H          2.9197227852       -1.9469689054        2.2533448593
 H          1.4761437596       -3.5552004184        3.1342617008
 H         -0.7292058155       -4.6534726425        3.0287071496
 H         -2.3859619910       -3.9484996284        1.3465000622
 H         -3.0770721661       -2.4835409388       -0.3021308867
 C         -1.7580475865       -2.5424067385       -1.9783150639
 C         -2.0984724341       -3.9508636622       -2.3583935083
 C         -2.8584735434       -2.8072361081       -2.9591935534
 H         -2.6924710033       -2.5608880154       -3.9969685195
 H         -3.8733508461       -2.6389539929       -2.6283755146
 H         -1.4083345864       -4.4949345104       -2.9845117244
 H         -2.6013082565       -4.5615962588       -1.6238333295
 H         -0.8386188060       -2.1238796322       -2.3641465310
