  62
        -98.93559884
 C         -2.3216906676       -0.6378322666        0.8722851753
 C         -3.4901329804       -1.0369045308        0.1755353240
 C         -4.6487536541       -0.1356199576        0.2995576424
 C         -4.5462670273        0.9847128173        1.0353534239
 C         -5.6285485685        2.0125110929        1.1932431905
 C         -5.5186413127        3.1062103975        0.1216862112
 C         -5.3687775136        2.5650359102       -1.3001515407
 H         -5.3313062496        3.4248645933       -1.9725494841
 H         -4.4092596388        2.0494083484       -1.3850272948
 C         -6.4943079534        1.6189215252       -1.7412365180
 H         -7.3600034660        1.7444105007       -1.0899807343
 H         -6.8059628796        1.8929508072       -2.7513239457
 C         -6.1007579527        0.1412850090       -1.7816795706
 H         -5.1791058858        0.0235275514       -2.3569040763
 H         -6.8873920541       -0.4057442898       -2.3080172173
 C         -5.9075100872       -0.5351615612       -0.4187072968
 H         -6.7821454641       -0.3547490799        0.2093062440
 H         -5.8233474025       -1.6119526523       -0.5920803432
 H         -6.4068366453        3.7378955074        0.1813113963
 H         -4.6459635897        3.7239723128        0.3464762371
 H         -6.5984113679        1.5229153351        1.1295434005
 H         -5.5260347979        2.4698960637        2.1787540838
 O         -3.4094368503        1.3346165641        1.6919739819
 C         -2.2788852435        0.5393856131        1.6239583793
 O         -1.3090130240        0.9765161921        2.2784039846
 H          1.5953658374       -0.8432037099        0.9058808012
 C          1.1881117996       -0.8105529771       -0.0933659367
 C         -0.1574849756       -1.0773059545       -0.3011430235
 C         -0.6639631024       -1.0072388844       -1.5952425234
 C          0.1624799546       -0.6704682326       -2.6513922996
 C          1.5027997809       -0.4003789460       -2.4397860763
 C          2.0219606024       -0.4770569355       -1.1520412026
 N          3.3926068372       -0.2635827445       -0.9285906711
 S          3.9193821940        0.4309129919        0.5161315981
 O          3.8207286957       -0.5502486895        1.5668524496
 O          3.2468006458        1.6913012520        0.7393029023
 C          5.6345692234        0.7042516987        0.1133549921
 C          6.0508140870        1.9604323787       -0.2847181410
 C          7.3826215357        2.1505955901       -0.6189943449
 C          8.2695931860        1.0866430327       -0.5531792830
 C          7.8371454692       -0.1683623274       -0.1506426444
 C          6.5075779045       -0.3648776553        0.1865970559
 H          6.1280167547       -1.3184449292        0.5144248756
 H          8.5302673069       -0.9923302009       -0.0973827958
 H          9.3051585490        1.2373495345       -0.8141425145
 H          7.7225047002        3.1258898712       -0.9281280066
 H          5.3273509792        2.7595281015       -0.3121338645
 H          3.8530179804        0.1630042927       -1.7215041830
 H          2.1450224696       -0.1363713794       -3.2662232995
 H         -0.2419726467       -0.6155343673       -3.6509578163
 H         -1.7070875944       -1.2275666668       -1.7630433483
 C         -1.0356023343       -1.4473476374        0.8672128305
 H         -0.5011466267       -1.1440040379        1.7827258249
 C         -1.2762039674       -2.9490552715        0.9643758660
 C         -0.9930857375       -3.9064687717       -0.1499217737
 C         -0.1066231402       -3.8842119087        1.0564144100
 H         -0.1557516037       -4.7057116584        1.7550749003
 H          0.8788732655       -3.4547310632        0.9488820186
 H         -0.6052227736       -3.5113591094       -1.0752802466
 H         -1.6745113372       -4.7328540189       -0.2811378570
 H         -2.1323363674       -3.1796309856        1.5902193479
 O         -3.5840566881       -2.0812842561       -0.5172477061
