  62
        -98.93794512
 C         -2.4607996726       -0.8942856937        0.7828096020
 C         -3.5205512614       -0.9189729403       -0.1567095179
 C         -4.6152648099        0.0342314886        0.0869339828
 C         -4.5540700672        0.8642593254        1.1430750904
 C         -5.5712253511        1.9180989977        1.4699693183
 C         -5.2112664329        3.2610461708        0.8192137764
 C         -4.8704206338        3.1562637550       -0.6673735422
 H         -3.9485029108        2.5812490922       -0.7829535351
 H         -4.6640972722        4.1671840572       -1.0257326618
 C         -5.9725940301        2.5239527617       -1.5286485411
 H         -6.0945479635        3.1212020228       -2.4347415395
 H         -6.9223783415        2.5503133982       -0.9932103150
 C         -5.6831479468        1.0900528556       -1.9762012809
 H         -4.6897811335        1.0409750267       -2.4296390820
 H         -6.4087852716        0.8221438705       -2.7488746465
 C         -5.7658409558        0.0203197695       -0.8801252648
 H         -5.7348851875       -0.9577635303       -1.3689333215
 H         -6.7159409018        0.1093249415       -0.3495956538
 H         -4.3455247606        3.6771578931        1.3395520520
 H         -6.0505511651        3.9457216164        0.9543303518
 H         -6.5504588650        1.5881957472        1.1285994536
 H         -5.5979315209        2.0452958900        2.5535175450
 O         -3.5167942420        0.8666392937        2.0185660771
 C         -2.4506088041        0.0010694959        1.8569073836
 O         -1.5648493302        0.1149601841        2.7288236981
 H          1.0780582573       -0.5755281572        1.1946045867
 C          0.8996397263       -0.6549573597        0.1301759792
 C         -0.2647541484       -1.2639715936       -0.3163107229
 C         -0.4938446255       -1.3428098319       -1.6856640599
 C          0.4249657585       -0.8210251109       -2.5783633753
 C          1.5837664057       -0.2118960565       -2.1302073091
 C          1.8200579419       -0.1239194776       -0.7648685151
 N          2.9829496403        0.5154681910       -0.2976895207
 S          4.4305437734        0.1616704268       -1.0946837869
 O          4.5135333015        0.9859074947       -2.2744368639
 O          4.5410185872       -1.2633344585       -1.3118461897
 C          5.6286870415        0.7039182446        0.1069359696
 C          6.2143114784       -0.2259697367        0.9448062593
 C          7.1300152655        0.2074053182        1.8907366668
 C          7.4398506534        1.5558842785        1.9839442342
 C          6.8434726321        2.4772538522        1.1356897202
 C          5.9280882552        2.0507476319        0.1867823963
 H          5.4471260800        2.7286451674       -0.4988951846
 H          7.0893380714        3.5242658129        1.2101861876
 H          8.1530064876        1.8904039389        2.7207140350
 H          7.5976166143       -0.5065679973        2.5495081741
 H          5.9499092085       -1.2650775037        0.8303590050
 H          3.0863672430        0.4328868235        0.7045193325
 H          2.3089450957        0.1918729997       -2.8185227151
 H          0.2368299789       -0.8879376978       -3.6396759205
 H         -1.4059571868       -1.7948217276       -2.0425001789
 C         -1.2496458210       -1.8106029720        0.6903125976
 H         -0.7727740544       -1.7648043573        1.6786847030
 C         -1.6097013824       -3.2547203840        0.4047269205
 C         -0.6070551214       -4.3229924301        0.7170630524
 C         -1.8451193753       -4.1894196905        1.5510594373
 H         -2.6171909426       -4.9377902412        1.4542353693
 H         -1.7468705207       -3.7910924072        2.5506793865
 H          0.3329253767       -4.0150104891        1.1502131137
 H         -0.5253979747       -5.1643890803        0.0463142238
 H         -2.2275489467       -3.3841359389       -0.4731324022
 O         -3.5769776249       -1.6894073421       -1.1506974395
