  62
        -98.93486193
 C          2.5524360009        1.1620001946        0.5460540137
 C          2.8297605248        0.5808969883       -0.7171268945
 C          3.6226622755       -0.6598509127       -0.6898438377
 C          4.0140592407       -1.1746403774        0.4885401957
 C          4.7838540321       -2.4517215902        0.6580786036
 C          3.8427535427       -3.6504561631        0.8408139205
 C          2.7252871224       -3.7249736288       -0.2001857779
 H          2.1476361874       -4.6288515295        0.0068220179
 H          2.0467820021       -2.8788961606       -0.0620191771
 C          3.2132493843       -3.7518816699       -1.6554986030
 H          2.6522649504       -4.5170194738       -2.1961359396
 H          4.2655679394       -4.0367912444       -1.6877766527
 C          3.0188852107       -2.4379125703       -2.4146173495
 H          1.9862100849       -2.0981564291       -2.2971302418
 H          3.1804933638       -2.6335382823       -3.4779963938
 C          3.9544508209       -1.2905877828       -2.0128288040
 H          4.9895514076       -1.6375419769       -2.0265183110
 H          3.8456074632       -0.4976836464       -2.7582761598
 H          4.4374301701       -4.5650628404        0.8035045963
 H          3.3831442111       -3.5840226989        1.8298640360
 H          5.4183472935       -2.6046231753       -0.2126535632
 H          5.4137190003       -2.3580806983        1.5444266188
 O          3.7054459701       -0.6033619416        1.6816046728
 C          2.9549850597        0.5572595141        1.7387202222
 O          2.7145684786        0.9510569966        2.9002819503
 H         -0.1747754966        1.2169601197        1.9700944136
 C         -0.5114894859        1.4677942766        0.9708092624
 C          0.3530779972        2.1594309183        0.1252838849
 C         -0.0862269591        2.4368905251       -1.1629851192
 C         -1.3498122352        2.0456872056       -1.5750316964
 C         -2.2023590922        1.3647468334       -0.7268481248
 C         -1.7701527291        1.0640041568        0.5579997413
 N         -2.6213583601        0.3545171463        1.4292851633
 S         -3.1649290666       -1.1417622852        0.8846538784
 O         -3.4524694096       -1.9023316727        2.0818109860
 O         -2.2320806745       -1.7356787404       -0.0459637651
 C         -4.6964873799       -0.7562695629        0.0625802737
 C         -5.6695577881       -0.0900454459        0.7819116239
 C         -6.8699355313        0.2141395744        0.1602313770
 C         -7.0772429719       -0.1543137834       -1.1609195251
 C         -6.0916293714       -0.8257333794       -1.8680078668
 C         -4.8874566485       -1.1315509269       -1.2526069282
 H         -4.0892294748       -1.6457382136       -1.7639876235
 H         -6.2543301636       -1.1114124433       -2.8948249420
 H         -8.0124097214        0.0837872859       -1.6426300576
 H         -7.6385654820        0.7367493516        0.7063658417
 H         -5.4689644200        0.1741338287        1.8067285724
 H         -2.2443556906        0.2619712308        2.3623910171
 H         -3.1824496677        1.0540402428       -1.0502662502
 H         -1.6696575034        2.2705138957       -2.5811986621
 H          0.5615271145        2.9245615304       -1.8682509040
 C          1.7257097932        2.4372484546        0.6878604946
 H          1.5919526038        2.5514144893        1.7749861761
 C          2.5043400606        3.6740689783        0.2628354806
 C          2.8444209992        4.0757811919       -1.1394515510
 C          1.8721358954        4.8916124044       -0.3421330559
 H          2.1917793626        5.8595919282        0.0142633153
 H          0.8255843036        4.8416423053       -0.5970938413
 H          2.4988469477        3.4566759230       -1.9498273301
 H          3.8318714333        4.4824154171       -1.3079810764
 H          3.2901760322        3.8626527417        0.9914185804
 O          2.4487571687        1.0560705476       -1.8145052324
