  62
        -98.94621723
 C          2.8241064726        0.8902644774        0.2033469255
 C          2.4667186103        0.1627999114       -0.9593943032
 C          2.8407957389       -1.2567449286       -0.9554099155
 C          3.5691919460       -1.7549716074        0.0602002707
 C          4.0006646261       -3.1872047565        0.2194347308
 C          2.9429635132       -4.0665750914        0.9020284391
 C          1.7139844120       -4.3885839921        0.0495216992
 H          2.0353086853       -4.8064267326       -0.9050215626
 H          1.1522384046       -5.1644695189        0.5733690858
 C          0.7825142443       -3.1936934367       -0.2042442396
 H          1.0059749291       -2.3965917922        0.5107427289
 H         -0.2581311665       -3.4830732686       -0.0323150483
 C          0.8614887186       -2.6213277566       -1.6200562594
 H          0.5334989671       -3.3788196829       -2.3355954875
 H          0.1619952483       -1.7823850345       -1.6855291776
 C          2.2594772055       -2.1294163088       -2.0252921834
 H          2.9117699644       -2.9779318567       -2.2301966304
 H          2.1622296072       -1.5300895422       -2.9334012737
 H          2.6256851079       -3.5764537721        1.8257468449
 H          3.4248818663       -5.0082508641        1.1740766547
 H          4.2558358340       -3.6076371710       -0.7528370085
 H          4.8961311899       -3.1786966684        0.8443388902
 O          4.0039434847       -0.9867928908        1.0952559293
 C          3.5802433090        0.3286555150        1.2296581117
 O          3.9391172655        0.8795588988        2.2906456669
 H          0.6341839452        0.4274421873        1.3352621915
 C          0.0865396540        1.1916189081        0.7948975587
 C          0.7804369411        2.2627091322        0.2451655328
 C          0.0573240906        3.2331676084       -0.4353901262
 C         -1.3141308363        3.1117231388       -0.5831572425
 C         -1.9931071199        2.0249232804       -0.0638790106
 C         -1.2813307953        1.0542606680        0.6284497502
 N         -1.9576771159       -0.0671404832        1.1494778223
 S         -2.8032218247       -1.0091589970        0.0370567800
 O         -2.8199066795       -2.3413020999        0.6017221012
 O         -2.2641504650       -0.8771040276       -1.2949676284
 C         -4.4478988834       -0.3299597489        0.1001694147
 C         -5.1072445621       -0.3312973279        1.3138109777
 C         -6.3855505470        0.1991976300        1.3812470149
 C         -6.9800812552        0.7173547868        0.2401380611
 C         -6.3061456525        0.7082527785       -0.9714796686
 C         -5.0265563735        0.1797331153       -1.0453754780
 H         -4.4609396567        0.1557647121       -1.9633392213
 H         -6.7698496186        1.1108475231       -1.8576693619
 H         -7.9748072214        1.1305750658        0.2953281936
 H         -6.9128792362        0.2080460072        2.3215050100
 H         -4.6100941841       -0.7470278229        2.1742988161
 H         -1.3610550555       -0.6629979419        1.7063862781
 H         -3.0571478033        1.9147025132       -0.1964506925
 H         -1.8604863931        3.8701719464       -1.1227549968
 H          0.5706667646        4.0771988013       -0.8662430005
 C          2.2848044058        2.2961610511        0.3932541567
 H          2.5302898155        2.5859733710        1.4257150033
 C          2.9591082042        3.2617737641       -0.5588463662
 C          3.1558226255        4.6959376102       -0.1712491002
 C          4.3293178895        3.7657722342       -0.2224189061
 H          5.0470690266        3.8796987232       -1.0207727307
 H          4.7626278536        3.4317491036        0.7093143748
 H          2.7992967202        5.0059450776        0.7994175751
 H          3.0717433550        5.4527662914       -0.9365174014
 H          2.7494980866        3.0318289470       -1.5972545655
 O          1.8459333286        0.6624340661       -1.9319738120
