  62
        -98.94489125
 C         -1.9333449744       -0.4301063005       -0.6670278466
 C         -2.9821509348       -1.2831483745       -0.2466391084
 C         -4.3317108627       -0.7112400915       -0.2998850763
 C         -4.5061928934        0.5454798888       -0.7479156286
 C         -5.8232273380        1.2604534654       -0.8844739929
 C         -6.3144240197        1.9180297169        0.4125465690
 C         -6.8233177992        0.9494064788        1.4808973598
 H         -7.3335285195        1.5476938027        2.2384240751
 H         -7.5643375036        0.2815532806        1.0405110229
 C         -5.7230940799        0.1239451285        2.1624585306
 H         -4.7518403299        0.5877426832        1.9748132546
 H         -5.8782576473        0.1328942135        3.2436872238
 C         -5.6661737960       -1.3397131071        1.7248619828
 H         -6.5847312804       -1.8481374202        2.0259495825
 H         -4.8309599379       -1.8197969344        2.2410374043
 C         -5.4689058815       -1.5403083058        0.2165085840
 H         -5.2222116166       -2.5899348371        0.0392049979
 H         -6.3878929029       -1.3017303977       -0.3182420714
 H         -7.1309415398        2.5931466571        0.1460846210
 H         -5.5040720274        2.5236330368        0.8250684705
 H         -6.5804515197        0.5673497072       -1.2521408987
 H         -5.6752414733        2.0426809441       -1.6321597688
 O         -3.4728657228        1.3277080387       -1.1594891741
 C         -2.1623987799        0.8716816314       -1.1121757342
 O         -1.3176520894        1.7046268362       -1.4918875425
 O         -2.7980252715       -2.4634085157        0.1542004989
 C         -0.5075526446       -0.9521276677       -0.6270432823
 C          0.3237443741       -0.0824548438        0.2822341975
 C         -0.0896872244        0.0790719557        1.6033597218
 C          0.6123241253        0.8921679792        2.4701357582
 C          1.7506151943        1.5538920367        2.0420279731
 C          2.1759524977        1.3959078036        0.7293520191
 C          1.4674145635        0.5752170370       -0.1399737012
 H          1.8113171319        0.4884021882       -1.1563054847
 N          3.3172149375        2.0708055176        0.2672869139
 S          4.4636137237        1.2785700785       -0.6541311424
 O          5.6205187555        2.1455271513       -0.6136666851
 O          3.9413159047        0.9724907272       -1.9606269070
 C          4.7967050100       -0.2198776799        0.2534718113
 C          4.1458157926       -1.3873315656       -0.0890931761
 C          4.3642429291       -2.5230904951        0.6749785414
 C          5.2230564575       -2.4718666040        1.7618251480
 C          5.8730291453       -1.2916232398        2.0903140251
 C          5.6558106703       -0.1521860292        1.3333283426
 H          6.1487690955        0.7821512722        1.5479027548
 H          6.5440635751       -1.2562492570        2.9333859343
 H          5.3882639137       -3.3580587738        2.3540722507
 H          3.8612777234       -3.4420855394        0.4192452232
 H          3.4891077882       -1.3899477080       -0.9430732781
 H          3.7595665948        2.6601494928        0.9572736546
 H          2.2967224133        2.1979869806        2.7144095157
 H          0.2743259422        1.0126229384        3.4883283360
 H         -0.9808304673       -0.4359990410        1.9354831486
 H         -0.5796764152       -1.9531424339       -0.1764865692
 C          0.0471810120       -1.0898568577       -2.0281648620
 C          1.0965853040       -2.1178976912       -2.3234529616
 C         -0.3008519644       -2.3059191025       -2.8312765224
 H         -0.4894000887       -2.1886180040       -3.8878817537
 H         -0.9208183920       -3.0526746286       -2.3569882316
 H          1.8744142369       -1.8711161214       -3.0312932374
 H          1.4189044172       -2.7472535381       -1.5074623442
 H          0.0947509473       -0.1446074857       -2.5578435114
