  62
        -98.93906988
 C          1.4999034313        0.7765607733       -0.1167008281
 C          2.7791081593        1.3732743158       -0.1029268956
 C          3.9047676176        0.5270904505        0.3406789969
 C          3.6516623967       -0.7416311877        0.7133489841
 C          4.6327468778       -1.7933399821        1.1590744327
 C          5.4311691652       -2.3931931504       -0.0097514189
 C          5.9494600167       -1.3765696371       -1.0235756278
 H          6.3956697350       -1.9321166769       -1.8527190970
 H          5.1074571773       -0.8121714545       -1.4284659159
 C          7.0023061173       -0.4066065831       -0.4927246995
 H          7.3421529627        0.1979718381       -1.3376516815
 H          7.8603136102       -0.9743168751       -0.1254994712
 C          6.5389594739        0.5431749625        0.6137422794
 H          7.3023926167        1.3201155688        0.7161849918
 H          6.4880644576        0.0337367891        1.5722596543
 C          5.2239267384        1.2615296231        0.3274616712
 H          5.1116104879        2.0814014842        1.0475822225
 H          5.2878826775        1.7486391173       -0.6523530019
 H          6.2681989073       -2.9613569307        0.3995995581
 H          4.7786530193       -3.0894014233       -0.5420365159
 H          5.2982402301       -1.3869432839        1.9148842462
 H          4.0479029404       -2.5895074662        1.6246928169
 O          2.3951432085       -1.2718412859        0.6929021601
 C          1.2921865985       -0.5422128755        0.2870610433
 O          0.2144315362       -1.1615436054        0.3317243096
 O          2.9829689696        2.5702961631       -0.4464625145
 C          0.3037785816        1.5894061257       -0.5744962104
 C         -0.7494338668        1.6135864082        0.5046242707
 C         -0.3754216694        1.9247240497        1.8099413169
 C         -1.3072185549        1.9329820078        2.8287924195
 C         -2.6314810456        1.6216869325        2.5722911733
 C         -3.0183456200        1.3265585223        1.2713585022
 C         -2.0820609420        1.3373242693        0.2456400095
 H         -2.4150183482        1.1294332750       -0.7562902821
 N         -4.3543444151        1.0294472943        0.9755859491
 S         -4.7600198164        0.0201870283       -0.2893427789
 O         -4.6325813258        0.7216948710       -1.5426360246
 O         -6.0960396932       -0.4311662416        0.0392824048
 C         -3.6289628093       -1.3570050774       -0.2364590354
 C         -2.9188863086       -1.6958840320       -1.3689714098
 C         -2.0603904325       -2.7812477748       -1.3232317035
 C         -1.9248916244       -3.5037070301       -0.1496980025
 C         -2.6470823205       -3.1525678466        0.9792142911
 C         -3.5095909595       -2.0703910229        0.9386208278
 H         -4.0873959958       -1.7776089278        1.8005059471
 H         -2.5334349850       -3.7147423150        1.8923273342
 H         -1.2459673735       -4.3408767650       -0.1133384907
 H         -1.4915416291       -3.0529229072       -2.1985286692
 H         -3.0473415575       -1.1019556625       -2.2605626501
 H         -4.9592863679        0.9077494275        1.7735286959
 H         -3.3584713687        1.6133740798        3.3697681238
 H         -1.0001792625        2.1734727586        3.8355965908
 H          0.6615654788        2.1538264727        2.0150210024
 H          0.6780923179        2.6136821388       -0.7206516047
 C         -0.2084334578        1.0600996295       -1.8976418057
 C         -0.9256122543        1.9672041367       -2.8508527019
 C          0.4584138187        1.4884593620       -3.1688262323
 H          0.5864434481        0.7604355493       -3.9557953782
 H          1.2735882367        2.1927889710       -3.0886051721
 H         -1.7568668592        1.5719242292       -3.4159425388
 H         -1.0505209485        2.9992296991       -2.5593365386
 H         -0.5375656597        0.0287533517       -1.8275647910
