  62
        -98.93606546
 C         -2.4853713642       -0.1349944144       -0.5987178407
 C         -2.1842372660       -0.6557517212        0.6834514273
 C         -1.7711449888       -2.0669559858        0.7181245381
 C         -1.6941667884       -2.7626624955       -0.4299434928
 C         -1.2880181099       -4.2041789301       -0.5398661926
 C          0.2177086756       -4.3586750413       -0.7875798584
 C          1.0924778264       -3.5617612359        0.1801070445
 H          2.1328681591       -3.8029122941       -0.0518606789
 H          0.9652719630       -2.4934974585       -0.0113431184
 C          0.8216313256       -3.8397036794        1.6653608830
 H          0.2940738553       -4.7881554185        1.7779678092
 H          1.7797379268       -3.9368927149        2.1800171569
 C          0.0432473581       -2.7311022003        2.3775078966
 H          0.4872311765       -1.7636971890        2.1300024675
 H          0.1432288143       -2.8801635249        3.4562404470
 C         -1.4564815570       -2.6614831590        2.0616379199
 H         -1.9225151417       -1.9983338523        2.7962985950
 H         -1.9032156206       -3.6537342778        2.1603736572
 H          0.4392316827       -4.0205212711       -1.8028772747
 H          0.4685009077       -5.4194162983       -0.7188274713
 H         -1.5701542276       -4.7216356709        0.3752806781
 H         -1.8303683612       -4.6459362693       -1.3781923340
 O         -1.9740320017       -2.2214180509       -1.6454455762
 C         -2.3584565864       -0.8964023857       -1.7583501054
 O         -2.5715499918       -0.5202365209       -2.9316521974
 O         -2.2729529414        0.0111772132        1.7456306178
 C         -2.9175963816        1.3193210197       -0.7631033079
 C         -1.9233366123        2.1825985557       -0.0219145127
 C         -2.1642270441        3.1238250309        0.9698926240
 C         -1.1142700907        3.8023899607        1.5687215575
 C          0.1973367641        3.5501081442        1.2190735047
 C          0.4542006083        2.6167409753        0.2213839916
 C         -0.5986804765        1.9737672044       -0.4021450074
 H         -0.3794965624        1.2530670116       -1.1786667157
 N          1.7701711529        2.3093592870       -0.1765961711
 S          2.0774592329        0.6710953904       -0.4761566064
 O          1.7551920052        0.3827806191       -1.8529284507
 O          1.4314751720       -0.1440529164        0.5243152509
 C          3.8477746128        0.6226167921       -0.2652536848
 C          4.3873218228        0.0365261322        0.8634525525
 C          5.7647264029        0.0300249976        1.0216241926
 C          6.5732144103        0.6098953608        0.0559128596
 C          6.0165231622        1.1944391129       -1.0724291203
 C          4.6408698069        1.2019525585       -1.2381563232
 H          4.1629089970        1.6338540321       -2.1019715340
 H          6.6483063740        1.6419446905       -1.8225379732
 H          7.6443496125        0.6041558007        0.1816499886
 H          6.1997855062       -0.4266794296        1.8958640679
 H          3.7179327244       -0.4048767536        1.5843991585
 H          2.4613228525        2.6960480938        0.4531073471
 H          1.0115917380        4.0594953831        1.7117129460
 H         -1.3278100282        4.5250579414        2.3419649279
 H         -3.1607673095        3.3277575452        1.3158522834
 H         -2.7787804546        1.5390383395       -1.8361816191
 C         -4.4164054116        1.4024226769       -0.5161630988
 C         -5.0673702055        1.5636048737        0.8213009863
 C         -5.1884724206        2.6500763569       -0.2073819072
 H         -6.1444837332        2.7740201880       -0.6947344940
 H         -4.6513312943        3.5741968937       -0.0737483878
 H         -5.9388516345        0.9595427039        1.0294808726
 H         -4.4271582481        1.6955507450        1.6780567170
 H         -4.9097227309        0.7079878973       -1.1942937900
