  62
        -98.93280054
 C          1.8190331704        0.6807908566        0.8787145579
 C          2.1389932394       -0.6973107961        0.7917266358
 C          3.5607486821       -1.0468330604        0.6352848203
 C          4.4701452742       -0.0581956124        0.5938909492
 C          5.9546053484       -0.1845480849        0.3892778558
 C          6.3121438172       -0.0396696633       -1.0996467870
 C          6.2579874004       -1.3374676651       -1.9047866125
 H          6.4021751848       -1.0740727981       -2.9551890715
 H          7.0927559147       -1.9770289168       -1.6102689710
 C          4.9590438751       -2.1369056499       -1.7723567345
 H          4.1037501030       -1.4597161225       -1.8123125556
 H          4.8853250130       -2.8005678753       -2.6361423079
 C          4.8979026074       -2.9811772695       -0.4906760449
 H          5.8889745662       -3.0140513583       -0.0383891390
 H          4.6413042471       -4.0107714548       -0.7484226012
 C          3.8696838754       -2.5167697216        0.5513121182
 H          2.9042126472       -2.9899332620        0.3468231448
 H          4.1837011553       -2.8641699466        1.5413093341
 H          7.3229753025        0.3655441473       -1.1795158111
 H          5.6306949169        0.6943093930       -1.5375104715
 H          6.3211775405       -1.1237777081        0.7926751607
 H          6.4154861451        0.6388120056        0.9389763864
 O          4.1245105654        1.2537064752        0.6858283427
 C          2.8048028268        1.6664426849        0.8165357194
 O          2.6731884432        2.9022573329        0.8645284888
 O          1.2641904571       -1.6040078357        0.8449764527
 C          0.3490573652        1.0209555229        1.0364009723
 C         -0.3256689247        1.2318174435       -0.2945933257
 C          0.2529079147        2.0032022948       -1.2969730087
 C         -0.4065917484        2.1971366672       -2.4972393833
 C         -1.6594463008        1.6494123518       -2.7112495664
 C         -2.2464028700        0.8774468978       -1.7159012569
 C         -1.5671649222        0.6587291126       -0.5256233433
 H         -2.0161035540        0.0377367166        0.2336525943
 N         -3.5119373531        0.3041835758       -1.8946921684
 S         -4.5835070959        0.2495135792       -0.6075937088
 O         -5.8881241618        0.1549910393       -1.2259618306
 O         -4.3820384270        1.3598296649        0.2927595777
 C         -4.2149254760       -1.2889358936        0.2070581249
 C         -4.2207495537       -2.4452438200       -0.5475537047
 C         -3.9448510419       -3.6514897804        0.0752915195
 C         -3.6714959287       -3.6812666928        1.4345378451
 C         -3.6734887782       -2.5120324055        2.1790339580
 C         -3.9486987850       -1.3020865428        1.5617086830
 H         -3.9535622147       -0.3687920412        2.1033035966
 H         -3.4581179376       -2.5364148513        3.2353283239
 H         -3.4534755430       -4.6207533218        1.9174275550
 H         -3.9407735942       -4.5636973862       -0.4993210355
 H         -4.4399122027       -2.3821538482       -1.6003370353
 H         -3.9703243816        0.5406167218       -2.7624116449
 H         -2.1789685776        1.8168806803       -3.6425455512
 H          0.0533229544        2.7954784282       -3.2695249895
 H          1.2168907988        2.4571232877       -1.1218874339
 H         -0.0987906471        0.1196737117        1.4854951176
 C          0.0894958813        2.1734927806        1.9965764457
 C         -0.3174906042        3.5436941803        1.5557163474
 C         -1.3095587755        2.6573357236        2.2439993636
 H         -1.5984750307        2.8967234295        3.2565938546
 H         -2.1087095984        2.2417211042        1.6463242125
 H          0.0955206468        4.3852616686        2.0904989225
 H         -0.4415267024        3.7231956337        0.4994029480
 H          0.7443407016        2.1277180360        2.8614679868
