  62
        -98.94463867
 C         -1.7574729309       -1.0850095566       -0.0502361864
 C         -2.9558767013       -1.1023388707        0.7136315986
 C         -4.1401638343       -0.5076396819        0.0872933018
 C         -4.0533500960       -0.0105070086       -1.1593860116
 C         -5.1760747346        0.6018555497       -1.9516340166
 C         -5.4211685845        2.0851281299       -1.6427405857
 C         -6.0703210836        2.3683393167       -0.2874263243
 H         -6.3825223188        3.4145857643       -0.2944590446
 H         -6.9700985275        1.7612505345       -0.1828774997
 C         -5.1477579930        2.1373548879        0.9177530731
 H         -5.2303205087        2.9813153209        1.6063817165
 H         -4.1088574580        2.1022016366        0.5809605001
 C         -5.4521390173        0.8699754673        1.7168295709
 H         -4.7166377266        0.7886041659        2.5212748095
 H         -6.4414759679        0.9531455539        2.1721094610
 C         -5.4003539241       -0.4240456263        0.8940660994
 H         -5.4098197294       -1.2704179758        1.5851199550
 H         -6.2731289849       -0.4922215719        0.2449076516
 H         -6.0764948378        2.4767690012       -2.4241942137
 H         -4.4698868236        2.6184262385       -1.7093631150
 H         -4.9000182016        0.5105011199       -3.0044106107
 H         -6.0937504359        0.0377221879       -1.7827549134
 O         -2.8960290169       -0.0291956139       -1.8681108026
 C         -1.7203817774       -0.5380598642       -1.3327683139
 O         -0.7464049687       -0.4345530527       -2.1071016120
 H          0.6508869457        0.3837548722       -0.6466703519
 C          0.9242231531        0.3364054633        0.3970181681
 C          0.3883699667       -0.6632861644        1.1962506241
 C          0.7575560489       -0.7094876024        2.5352342816
 C          1.6418012198        0.2192598640        3.0574477999
 C          2.1731815982        1.2147378954        2.2568364518
 C          1.8016956104        1.2733615919        0.9205075144
 N          2.3518222626        2.2756259504        0.0868885537
 S          3.9962588582        2.0969054805       -0.1942829035
 O          4.7129318015        2.4380974806        1.0082616538
 O          4.2894868027        2.8974486396       -1.3613136065
 C          4.1912151256        0.3613630328       -0.5538717035
 C          3.8857330046       -0.0822100060       -1.8248534086
 C          3.9548227521       -1.4388282839       -2.0957571898
 C          4.3163953864       -2.3236320738       -1.0917010550
 C          4.6114004441       -1.8632776885        0.1821018967
 C          4.5470030324       -0.5072046015        0.4579734343
 H          4.7707303897       -0.1069026965        1.4330441103
 H          4.8865194141       -2.5556001374        0.9611815088
 H          4.3718657296       -3.3794023501       -1.3070378365
 H          3.7195846103       -1.7998777258       -3.0842735258
 H          3.6108761655        0.6370481882       -2.5801631705
 H          1.8752574462        2.3337911350       -0.8030831445
 H          2.8744196866        1.9385881279        2.6394942688
 H          1.9198705179        0.1684139833        4.0990353827
 H          0.3401645897       -1.4762571118        3.1710820881
 C         -0.5335823889       -1.7021831051        0.6047421353
 H         -0.9308537371       -2.3066708663        1.4311214080
 C          0.2534612411       -2.6117625489       -0.3201847633
 C          1.0868476776       -3.7052043479        0.2739028638
 C         -0.1669269888       -4.0409601590       -0.4753822530
 H         -0.0839443737       -4.4979843346       -1.4498540602
 H         -1.0270305101       -4.3721485274        0.0884128390
 H          1.0780287744       -3.8134278212        1.3475801931
 H          2.0362470411       -3.9313954394       -0.1844464321
 H          0.6349738109       -2.1055597345       -1.1974306337
 O         -3.0310434117       -1.6043836210        1.8662990478
