  62
        -98.94108017
 C         -1.6866392335        0.3119337163       -0.9527261103
 C         -2.9088806817        0.9666602486       -0.6642380146
 C         -4.0777369315        0.0921037213       -0.4767780699
 C         -3.9358294208       -1.2413558402       -0.5747646362
 C         -5.0288532367       -2.2429768365       -0.3424503123
 C         -5.0697532788       -2.6907308706        1.1254216765
 C         -5.0529230570       -1.5343713084        2.1252412593
 H         -5.1160413098       -1.9685408501        3.1254500542
 H         -4.0916648709       -1.0193500730        2.0591470615
 C         -6.1864057184       -0.5162685046        1.9378838098
 H         -6.9832229747       -0.9550412926        1.3361916389
 H         -6.6112526381       -0.2811900118        2.9161027950
 C         -5.7505285998        0.8096111596        1.3116012863
 H         -4.8909997008        1.2072359774        1.8571334791
 H         -6.5695489863        1.5249088843        1.4253875642
 C         -5.3924582846        0.7571180038       -0.1789613411
 H         -6.2008837265        0.2786539249       -0.7353350381
 H         -5.2946590636        1.7876067330       -0.5326467893
 H         -5.9676036050       -3.2925178508        1.2776358082
 H         -4.1998054310       -3.3224401486        1.3189759150
 H         -5.9834011753       -1.8039490668       -0.6259427553
 H         -4.8377446046       -3.1127772559       -0.9731503263
 O         -2.7482386102       -1.8360995904       -0.8529263899
 C         -1.6040604966       -1.0821795839       -1.0412370775
 O         -0.5845348421       -1.7575181714       -1.2862479034
 H          1.9960791261        0.1797445382       -0.2439548001
 C          1.5301156677        0.8730615877        0.4395751091
 C          0.2875615906        1.4073020202        0.1321262340
 C         -0.3098689071        2.2810763196        1.0344439804
 C          0.3311864144        2.6097389291        2.2145171781
 C          1.5827161400        2.0956256506        2.5059979210
 C          2.1876683439        1.2214625987        1.6109398458
 N          3.4490999803        0.6740373658        1.8807025721
 S          4.5481010088        0.4295652740        0.6431571400
 O          5.8343310389        0.4011946672        1.3064172858
 O          4.3958080375        1.4099746847       -0.4060008931
 C          4.1803008372       -1.2007556052        0.0328326829
 C          4.1245564415       -2.2411641668        0.9386950275
 C          3.8606914347       -3.5190511058        0.4737345601
 C          3.6610409643       -3.7344450632       -0.8814928000
 C          3.7247763366       -2.6801624524       -1.7787628620
 C          3.9877458097       -1.3995463977       -1.3193980247
 H          4.0401668718       -0.5505273589       -1.9832701862
 H          3.5651816709       -2.8489204588       -2.8316913026
 H          3.4521785945       -4.7293140974       -1.2419997854
 H          3.8088272930       -4.3427676496        1.1674915301
 H          4.2880098617       -2.0353386337        1.9834236733
 H          3.8930667660        1.0144948707        2.7208896084
 H          2.0882647993        2.3664570512        3.4206507789
 H         -0.1426224380        3.2854499324        2.9107529112
 H         -1.2805103207        2.6920843158        0.8034790697
 C         -0.3736776536        1.0448994135       -1.1763155685
 H          0.2823611843        0.3255838387       -1.6853388581
 C         -0.5007524467        2.2750154844       -2.0554716322
 C          0.7457709859        2.8688852425       -2.6372635310
 C         -0.2328632543        2.1601291629       -3.5241452990
 H         -0.8312049047        2.7475356984       -4.2044545627
 H          0.0389510655        1.1880216887       -3.9095656047
 H          0.8183909399        3.9435042611       -2.7081859254
 H          1.6851088279        2.3836904720       -2.4136252913
 H         -1.2825217275        2.9528820919       -1.7403871333
 O         -3.0468938280        2.2147624118       -0.5615625300
