  62
        -98.94008564
 C          1.9618479057        0.8525088773       -0.1762644819
 C          2.7613706130        0.4128179273        0.9099151476
 C          3.2238016157       -0.9789101965        0.8670603690
 C          2.8400868217       -1.7623092218       -0.1569010367
 C          3.2687969099       -3.1873381371       -0.3540312318
 C          4.5424785820       -3.2725649398       -1.2068815185
 C          5.6594601711       -2.3373699958       -0.7432642936
 H          6.5162418837       -2.5043557380       -1.3996146678
 H          5.3394599946       -1.3030425086       -0.8886861232
 C          6.0874909404       -2.5346615528        0.7176624315
 H          7.1784104492       -2.5341945805        0.7655142975
 H          5.7472972019       -3.5072154348        1.0747653438
 C          5.5994677264       -1.4450603979        1.6741884865
 H          5.8557788401       -0.4622584114        1.2708868193
 H          6.1332731533       -1.5599069667        2.6212183667
 C          4.0986673912       -1.4576515056        1.9917546085
 H          3.7981943210       -2.4566183621        2.3144003789
 H          3.9272362140       -0.7626488320        2.8189070314
 H          4.8987752824       -4.3042152610       -1.1925401388
 H          4.2856615498       -3.0152761736       -2.2371406339
 H          3.4377385989       -3.6463913214        0.6182482402
 H          2.4624091964       -3.7195572491       -0.8617709663
 O          2.0501890363       -1.3203743559       -1.1668153973
 C          1.5938190589       -0.0079375411       -1.2127604642
 O          0.8987014245        0.2371089018       -2.2180789086
 H         -0.6228321615        0.5571012429       -0.1206308923
 C         -0.8285652206        1.4672713973        0.4215289114
 C          0.1419011345        2.4519170264        0.5238401294
 C         -0.1598262598        3.6159598187        1.2236808369
 C         -1.4056493793        3.7908925621        1.7965937679
 C         -2.3736487767        2.8095891022        1.6856498105
 C         -2.0784282037        1.6353176472        1.0013367903
 N         -3.0268755662        0.6034630621        0.9290428912
 S         -3.0050506082       -0.4845361377       -0.3592240323
 O         -1.9749019721       -1.4648095991       -0.1223480675
 O         -2.9652928216        0.2305889440       -1.6143420963
 C         -4.6101792658       -1.2329059059       -0.1433621743
 C         -5.6926620635       -0.7105066472       -0.8262539826
 C         -6.9446378390       -1.2720383992       -0.6307766051
 C         -7.0932889951       -2.3398648639        0.2415095827
 C         -5.9978355272       -2.8548662288        0.9185685945
 C         -4.7432370672       -2.2977151904        0.7272463937
 H         -3.8613162216       -2.6678536570        1.2237935558
 H         -6.1159459890       -3.6871667874        1.5934808207
 H         -8.0683551705       -2.7753894331        0.3921786255
 H         -7.7969375882       -0.8758631194       -1.1587872968
 H         -5.5265742151        0.1122942730       -1.5029422615
 H         -3.9649660155        0.9096976381        1.1479120266
 H         -3.3462237955        2.9421575371        2.1340181674
 H         -1.6269384221        4.6998701353        2.3346535828
 H          0.5932396828        4.3826679588        1.3224429536
 C          1.4986558943        2.2949491305       -0.1269072803
 H          2.2290094132        2.8112043929        0.5133723654
 C          1.4846521102        2.9770772607       -1.4825974522
 C          1.7935505214        4.4390364194       -1.5899706375
 C          2.7763977082        3.4265553872       -2.0944510994
 H          2.9075791450        3.3081518142       -3.1592988157
 H          3.6788503892        3.2638895466       -1.5229783472
 H          2.0442047368        4.9713817583       -0.6854067131
 H          1.2443795934        5.0260589240       -2.3097920136
 H          0.7363763758        2.5689803418       -2.1510927276
 O          3.0829504450        1.1630678066        1.8719976465
