  62
        -98.94142128
 C         -1.2414896133       -1.1121299432       -0.0683378251
 C         -1.6577552401       -0.0415958110        0.7560797014
 C         -2.7141749732        0.8291540549        0.2174669611
 C         -3.1803616318        0.6069771790       -1.0231488673
 C         -4.2149226874        1.3935747463       -1.7887376720
 C         -5.4745535339        1.8350452746       -1.0297604555
 C         -5.9369813226        0.8770853314        0.0780547077
 H         -5.4009066991       -0.0703014567        0.0007113935
 H         -6.9985786086        0.6635186451       -0.0592464636
 C         -5.7525859470        1.4558540168        1.4830363588
 H         -6.4130197057        0.9233496784        2.1715380827
 H         -6.0652009392        2.5022869147        1.4736825773
 C         -4.3369718371        1.3623917783        2.0511823100
 H         -4.0998632904        0.3207494009        2.2836789371
 H         -4.3153292584        1.9149989712        2.9934881574
 C         -3.2213380768        1.8999334978        1.1398596449
 H         -2.3737107740        2.1809401757        1.7713580058
 H         -3.5465242632        2.7812769575        0.5919180965
 H         -6.2672476483        1.9432508822       -1.7719900450
 H         -5.3118739836        2.8225032123       -0.5997560265
 H         -3.7231295689        2.2744055598       -2.2127213469
 H         -4.4978557672        0.7502105543       -2.6255093062
 O         -2.7141541857       -0.4072338156       -1.8058262701
 C         -1.7387459736       -1.2851038076       -1.3584187309
 O         -1.4115236012       -2.1549330396       -2.1882831886
 H          0.8330741565        0.1844262666       -0.6184687224
 C          1.4630321510       -0.6634298846       -0.8382999958
 C          1.0853201601       -1.9279884844       -0.4090976566
 C          1.8970319979       -3.0067521172       -0.7378054804
 C          3.0454549683       -2.8144804423       -1.4864642907
 C          3.4254546999       -1.5495957561       -1.8974471190
 C          2.6229942389       -0.4632932632       -1.5682427009
 N          2.9652246918        0.8420494360       -1.9523847974
 S          2.6363745075        2.1097309566       -0.9113615888
 O          1.2332186462        2.4399520200       -0.9444612505
 O          3.5382805275        3.1594310016       -1.3373920669
 C          3.1247442337        1.5143844893        0.6984451275
 C          2.1854924828        1.2116844083        1.6622332781
 C          2.6156489682        0.6997424023        2.8769720645
 C          3.9673239437        0.5009042407        3.1074343218
 C          4.9003942051        0.8192211107        2.1317610309
 C          4.4770958777        1.3278057575        0.9155618835
 H          5.1716408734        1.5977593915        0.1366992913
 H          5.9521697412        0.6692355567        2.3144678931
 H          4.2942409654        0.0982009169        4.0531238211
 H          1.8814008523        0.4547386023        3.6279963071
 H          1.1361207211        1.3653672282        1.4638343316
 H          3.8691151163        0.9365210202       -2.3912704358
 H          4.3251117058       -1.4021884427       -2.4747239259
 H          3.6605271915       -3.6626554800       -1.7457036313
 H          1.6260582145       -3.9987306099       -0.4156952378
 C         -0.1616707663       -2.0515241497        0.4326382011
 H          0.0867571304       -1.6947376489        1.4445089790
 C         -0.6858213646       -3.4691107798        0.5313535580
 C         -0.1690965348       -4.3973969596        1.5886506794
 C         -1.5548636650       -3.8381636150        1.6952602632
 H         -2.3948379650       -4.4945870771        1.5243324515
 H         -1.7433542344       -3.0731071515        2.4344550913
 H          0.5816570732       -4.0176166475        2.2648735938
 H         -0.0589295978       -5.4436185076        1.3461842441
 H         -0.9436311101       -3.8836466233       -0.4366328576
 O         -1.1596254485        0.1840359334        1.8923838156
