  62
        -98.93868584
 C         -1.0200958305       -1.5666082352        0.6460387202
 C         -2.0715235165       -1.5198328173       -0.3018325889
 C         -3.1302513835       -0.5272947860       -0.0461109307
 C         -3.0400274539        0.2712682791        1.0317639783
 C         -3.9863581352        1.3878544131        1.3713343715
 C         -3.7176939237        2.6026700170        0.4598764633
 C         -4.8745445893        2.9541410772       -0.4745290602
 H         -5.6710651915        3.4266860305        0.1040025791
 H         -4.5052917613        3.6913457231       -1.1904406533
 C         -5.4836237495        1.7767766042       -1.2418945374
 H         -6.1750307978        1.2345311877       -0.5950223432
 H         -6.0826650089        2.1987590084       -2.0516509580
 C         -4.4839859839        0.7769617098       -1.8379872832
 H         -3.5167839582        1.2501394805       -2.0074158005
 H         -4.8600261820        0.4649952391       -2.8144717141
 C         -4.2869562974       -0.5051205655       -1.0076049233
 H         -4.0934822980       -1.3354393613       -1.6931392583
 H         -5.2100777377       -0.7342943159       -0.4676100035
 H         -2.8261345893        2.3924040764       -0.1334750171
 H         -3.4956211461        3.4767404698        1.0741391109
 H         -5.0124276821        1.0443554949        1.2582267222
 H         -3.8218685742        1.6493968495        2.4169975610
 O         -2.0098598822        0.2022157584        1.9154638483
 C         -0.9878615818       -0.7167928030        1.7534864831
 O         -0.1221239982       -0.6791671545        2.6518793474
 O         -2.1447869670       -2.2662264745       -1.3118492071
 C          0.1502925638       -2.5292177911        0.5073314553
 C          1.0708307559       -2.0267328824       -0.5794898361
 C          0.8957657781       -2.3534245368       -1.9194000861
 C          1.7476059604       -1.8373644633       -2.8794030820
 C          2.7816168745       -0.9886767276       -2.5275676148
 C          2.9665073660       -0.6563230558       -1.1898050034
 C          2.1129905247       -1.1776009929       -0.2282286904
 H          2.2681401028       -0.9225650160        0.8093998233
 N          4.0271371499        0.1779648789       -0.8089960578
 S          3.9000615124        1.2474952363        0.4655108058
 O          5.0153360733        2.1496376906        0.2716539032
 O          3.8758061925        0.5338439906        1.7160097820
 C          2.3763497603        2.1351814748        0.2023531232
 C          2.3364654082        3.0406264399       -0.8411404691
 C          1.1684499459        3.7461560158       -1.0753101357
 C          0.0630843543        3.5375132264       -0.2637340345
 C          0.1204331030        2.6284858072        0.7803657175
 C          1.2859583932        1.9156881004        1.0173222950
 H          1.3487435846        1.1976533884        1.8205012028
 H         -0.7338165459        2.4589934989        1.4170276249
 H         -0.8462678699        4.0905567225       -0.4408455109
 H          1.1219234320        4.4571543932       -1.8843703910
 H          3.2227434959        3.1914476308       -1.4357443940
 H          4.5544707375        0.5704360885       -1.5746909709
 H          3.4466291936       -0.5901603888       -3.2783991179
 H          1.6019154082       -2.0969043320       -3.9169765041
 H          0.0766914342       -2.9913988366       -2.2071343502
 H          0.6979891787       -2.4687947354        1.4578612145
 C         -0.2914521087       -3.9633855376        0.2997337395
 C          0.7013006964       -5.0649011952        0.5121514227
 C         -0.4193487164       -4.8669469094        1.4873049447
 H         -1.2241000361       -5.5866843617        1.5028118481
 H         -0.1847705802       -4.4548306338        2.4584268301
 H          0.6686885538       -5.9228193019       -0.1416212407
 H          1.6973275932       -4.7848530883        0.8218227345
 H         -1.0201058587       -4.0840482723       -0.4906544769
