  62
        -98.93852107
 C         -1.4145174985       -1.3131926656        0.1117038149
 C         -2.4862121194       -0.8521402295        0.9143943803
 C         -3.0589149633        0.4507474575        0.5540808656
 C         -2.5138795938        1.1595055733       -0.4504933745
 C         -2.9170576525        2.5373668681       -0.9058729797
 C         -4.3317907717        2.6796101878       -1.4995940744
 C         -5.4035099539        3.1008284870       -0.4866543300
 H         -4.9182760282        3.6216594509        0.3398715490
 H         -6.0723104974        3.8212131668       -0.9619548056
 C         -6.2803174112        1.9721849428        0.0639765848
 H         -7.0281729112        1.7035410879       -0.6854883662
 H         -6.8122405568        2.3574114223        0.9364668102
 C         -5.5466143138        0.6903539891        0.4583202181
 H         -6.2426254256        0.0543342418        1.0088347675
 H         -5.2665903331        0.1363244743       -0.4408441485
 C         -4.2762888134        0.9097917376        1.3029072986
 H         -4.1769415506        1.9564331049        1.5882791506
 H         -4.3247545403        0.3098103603        2.2141871288
 H         -4.6152231390        1.7490406493       -1.9905761250
 H         -4.2727424545        3.4482153580       -2.2718058799
 H         -2.8023936934        3.2255709137       -0.0647769457
 H         -2.1811061585        2.8177241355       -1.6625036603
 O         -1.4559804340        0.7025352369       -1.1705219808
 C         -0.8743040109       -0.5269235161       -0.9060722016
 O          0.0947043160       -0.7922205658       -1.6432619788
 H          0.5474741554       -0.7513527809        1.7956880225
 C          1.2288745760       -1.4097153267        1.2754758253
 C          0.7292103494       -2.4700869573        0.5281493978
 C          1.6300988651       -3.2965732871       -0.1301649483
 C          2.9912014318       -3.0524967343       -0.0550316507
 C          3.4794297804       -1.9690673481        0.6512358319
 C          2.5846370880       -1.1363981087        1.3135368824
 N          3.0185137706        0.0087013114        2.0178708936
 S          2.5633704172        1.4880264052        1.3691405911
 O          3.1288547129        2.4805631615        2.2589707888
 O          1.1346213797        1.5294443952        1.1936295589
 C          3.4136750005        1.5566208320       -0.1982684209
 C          2.9123288521        0.8524612657       -1.2746687093
 C          3.6315818444        0.8541459115       -2.4609841597
 C          4.8266894736        1.5504299759       -2.5506434736
 C          5.3147697959        2.2531123839       -1.4588635995
 C          4.6060929631        2.2523738612       -0.2688876787
 H          4.9434387447        2.7844049501        0.6061041769
 H          6.2428934250        2.7969866833       -1.5303002463
 H          5.3791514496        1.5456534755       -3.4770358425
 H          3.2448618832        0.3052893114       -3.3046769182
 H          1.9761004053        0.3217118798       -1.1898184426
 H          4.0153529341        0.0234924774        2.1893910717
 H          4.5384138128       -1.7611197727        0.6853068199
 H          3.6787837384       -3.7029214244       -0.5736613175
 H          1.2679825056       -4.1210248605       -0.7219143144
 C         -0.7691413104       -2.6379775065        0.4791196632
 H         -1.1205524962       -2.8341262445        1.5067714794
 C         -1.2239255041       -3.8176192623       -0.3673582162
 C         -2.5362416055       -3.7896749060       -1.0907386210
 C         -1.2541187016       -3.7574835924       -1.8642510648
 H         -0.9705369669       -4.6398389605       -2.4190503119
 H         -0.9561366137       -2.8312466337       -2.3294389743
 H         -3.1299187507       -4.6913537006       -1.1096187260
 H         -3.1212882438       -2.8831857903       -1.0308997168
 H         -0.9461044442       -4.7681884183        0.0773822884
 O         -2.9355814876       -1.4968137465        1.9011664811
