  62
        -98.93918297
 C          2.5496732790        0.0803379584        0.0148355634
 C          2.2822653703        1.0815975271       -0.9443498796
 C          1.7496506013        2.3604967278       -0.4428697451
 C          1.5532600756        2.5158080586        0.8799883976
 C          1.0545173665        3.6950126916        1.6900040674
 C          0.5170984651        4.9416848106        0.9948854962
 C         -0.8480078629        4.7550790607        0.3291362691
 H         -1.6072866565        4.7103057818        1.1137091884
 H         -1.0560755656        5.6319359156       -0.2877011502
 C         -1.0084086008        3.4981678359       -0.5233626731
 H         -2.0481210428        3.4499446635       -0.8614436122
 H         -0.8394618209        2.6059111902        0.0837724596
 C         -0.1230450540        3.4272342082       -1.7651062175
 H         -0.4001833977        2.5182107190       -2.3088398599
 H         -0.3259345218        4.2831433055       -2.4134004533
 C          1.3876694504        3.3696350698       -1.4952527568
 H          1.8808542822        3.0394677077       -2.4149210523
 H          1.7787129548        4.3536328920       -1.2488905434
 H          0.4039224554        5.7076980971        1.7667353585
 H          1.2496989061        5.3165472338        0.2859408315
 H          1.8956839058        3.9857560380        2.3289363133
 H          0.2845658458        3.2939693763        2.3570436558
 O          1.8566396222        1.5280542452        1.7730042204
 C          2.3015628729        0.2821438587        1.3708716960
 O          2.4538593407       -0.5343816509        2.3003058667
 O          2.4809783430        0.9142454389       -2.1806183413
 C          2.9725206445       -1.2986919511       -0.4546564063
 C          1.8799322736       -2.2940976910       -0.1400902432
 C          2.1227242434       -3.6062822787        0.2431294419
 C          1.0668063938       -4.4638994963        0.5062781141
 C         -0.2431185818       -4.0331675678        0.4130256085
 C         -0.4963051389       -2.7178603901        0.0339203774
 C          0.5604824047       -1.8775476307       -0.2659875753
 H          0.3506276475       -0.8687385112       -0.5900974882
 N         -1.8121098453       -2.2245662923       -0.0035556213
 S         -2.1364582715       -0.6173247347       -0.3537305611
 O         -1.8593059655       -0.3156733162       -1.7427387554
 O         -1.4894237611        0.2073207183        0.6346046768
 C         -3.8993345728       -0.6190302895       -0.0884414426
 C         -4.3760390919       -0.4804272549        1.2010248729
 C         -5.7440848921       -0.5201122541        1.4186198536
 C         -6.6086972439       -0.6995632116        0.3489417589
 C         -6.1164196853       -0.8348618736       -0.9403089551
 C         -4.7490421911       -0.7953135424       -1.1640319368
 H         -4.3209795692       -0.8850232727       -2.1495030832
 H         -6.7907618029       -0.9707929007       -1.7703936161
 H         -7.6728968771       -0.7310430849        0.5212231875
 H         -6.1297843029       -0.4116743102        2.4194484294
 H         -3.6646922316       -0.3369760053        1.9980226532
 H         -2.5041273394       -2.8701077497       -0.3524044745
 H         -1.0627206287       -4.6973119088        0.6375440366
 H          1.2698907696       -5.4828586358        0.7990747312
 H          3.1374444741       -3.9571823279        0.3379583983
 H          3.0568117383       -1.2219619697       -1.5501633863
 C          4.3209678034       -1.6870428600        0.1137192461
 C          5.2490019950       -2.5672960354       -0.6678130548
 C          5.5588057952       -1.1107887773       -0.5038663969
 H          6.3720343581       -0.8223737398        0.1447462857
 H          5.4279512107       -0.4597784414       -1.3561366318
 H          5.8552544121       -3.2812934263       -0.1310790430
 H          4.9188728036       -2.9062727949       -1.6382239851
 H          4.3003421270       -1.7897340409        1.1926711184
