  62
        -98.93250513
 C         -1.7412087587       -0.2574625053       -0.7889933132
 C         -2.8925350933        0.5478213715       -0.9609486783
 C         -4.1859992052       -0.0712180085       -0.6010633332
 C         -4.2171619931       -1.3249441210       -0.1155179281
 C         -5.3765535455       -2.2057175936        0.3017195122
 C         -6.7606084867       -1.6115412752        0.5509198958
 C         -6.8489836351       -0.6731009750        1.7537404467
 H         -7.8532378824       -0.2441269658        1.7776944338
 H         -6.7171529372       -1.2618103777        2.6651127171
 C         -5.8251327146        0.4590448237        1.7844605092
 H         -6.0094255042        1.0515169750        2.6848945160
 H         -4.8196294340        0.0427500433        1.8751278654
 C         -5.8634826017        1.4079092884        0.5879493625
 H         -5.2070076939        2.2517780700        0.8167623864
 H         -6.8751566168        1.7978109516        0.4597914431
 C         -5.3944041626        0.8080107003       -0.7493438207
 H         -5.0951838713        1.6336126031       -1.4017476879
 H         -6.1988457724        0.2726448536       -1.2479281721
 H         -7.4303155612       -2.4547419642        0.7413966974
 H         -7.1258759178       -1.1166153078       -0.3441206443
 H         -5.4647432575       -2.9710624294       -0.4773867790
 H         -5.0423612129       -2.7245791961        1.2057437204
 O         -3.0775404253       -2.0624539625        0.0354281905
 C         -1.8328499816       -1.5572533114       -0.2870292915
 O         -0.8926455092       -2.3536451530       -0.0911162043
 O         -2.8730876955        1.7275026194       -1.3942904590
 C         -0.3324972366        0.2111028300       -1.1097609189
 C          0.3033994872        0.9201962254        0.0581199928
 C         -0.3864543954        1.8685673729        0.8058262688
 C          0.2354494003        2.5167380342        1.8574447766
 C          1.5590850107        2.2545605175        2.1649429244
 C          2.2584531191        1.3118507409        1.4213907742
 C          1.6200476168        0.6377999529        0.3900549310
 H          2.1602200006       -0.1135297491       -0.1648345110
 N          3.6019524464        1.0211228313        1.6956603117
 S          4.6647645079        0.7951050817        0.4191963039
 O          5.9651257825        1.1149684804        0.9672244350
 O          4.2575074102        1.5482119861       -0.7429974024
 C          4.5923107207       -0.9512242470        0.0855939345
 C          4.8476905791       -1.8254819442        1.1233980692
 C          4.8081542160       -3.1878238498        0.8753178747
 C          4.5168990429       -3.6502821601       -0.3992777608
 C          4.2663233708       -2.7595769177       -1.4314116620
 C          4.3046688533       -1.3954446827       -1.1895606892
 H          4.1105709692       -0.6692794776       -1.9637889611
 H          4.0379705444       -3.1206116631       -2.4214738803
 H          4.4836868620       -4.7112726918       -0.5904456449
 H          5.0016876520       -3.8849771529        1.6746036441
 H          5.0737038494       -1.4278800535        2.0987309975
 H          4.0135789461        1.5694858559        2.4366906845
 H          2.0476354205        2.7750957453        2.9747289037
 H         -0.3117640616        3.2473292051        2.4342364452
 H         -1.4085518468        2.1007955803        0.5486288922
 H          0.2440830857       -0.7124149682       -1.2808703676
 C         -0.2476240962        1.0314271097       -2.3904273049
 C         -0.0505007462        2.5137694761       -2.4142624507
 C          1.0634691433        1.6076184067       -2.8395840100
 H          1.3138179572        1.5560768694       -3.8888607461
 H          1.9158669318        1.5198809336       -2.1805932870
 H         -0.5840806457        3.0783184843       -3.1635482149
 H          0.0452443814        3.0297033197       -1.4718963499
 H         -0.8859519915        0.6231093947       -3.1680631328
