  62
        -98.94489619
 C         -1.9289278404       -0.9455579950       -0.3182775688
 C         -3.0373412692       -1.2176488572        0.5230903694
 C         -4.3267120733       -0.6745277525        0.0844988132
 C         -4.3987135276        0.0317241023       -1.0583892584
 C         -5.6439163012        0.6360114853       -1.6484662310
 C         -6.0093695571        2.0077956807       -1.0648641510
 C         -6.5619540623        1.9822788965        0.3608207459
 H         -6.9777523251        2.9718868055        0.5605868978
 H         -7.3830458947        1.2669922849        0.4181909786
 C         -5.5181562302        1.6590102015        1.4390915866
 H         -4.5149730823        1.8002150135        1.0296677470
 H         -5.6244753949        2.3597963763        2.2702643067
 C         -5.6225948718        0.2485448723        2.0193956558
 H         -6.5712362864        0.1399537231        2.5497662963
 H         -4.8147476978        0.1157546028        2.7433683440
 C         -5.5142854051       -0.8724055910        0.9773832535
 H         -5.3793698627       -1.8194604984        1.5054715889
 H         -6.4289976525       -0.9277315778        0.3877265827
 H         -5.1262727116        2.6500577194       -1.1019540806
 H         -6.7672050191        2.4476207153       -1.7173974065
 H         -5.4545127267        0.7565256068       -2.7173194549
 H         -6.4813209144       -0.0502772008       -1.5192327637
 O         -3.3135388363        0.2666384759       -1.8416561812
 C         -2.0525111269       -0.1927886130       -1.4860322842
 O         -1.1550803287        0.1237977051       -2.2904824783
 O         -2.9517383338       -1.8864396704        1.5866537509
 C         -0.5654759515       -1.4617438480        0.1107819843
 C          0.2855082069       -0.2839643183        0.5135953074
 C          0.1171129404        0.2785969875        1.7757699816
 C          0.8604841286        1.3765566175        2.1672547549
 C          1.7847461282        1.9416243785        1.3051497556
 C          1.9517848354        1.3930686331        0.0414249544
 C          1.2152355613        0.2816559317       -0.3452123554
 H          1.3485889104       -0.1253783902       -1.3350174690
 N          2.9017882401        1.9604880925       -0.8378740202
 S          4.4984177368        1.8012396391       -0.3542024631
 O          4.7265014772        2.6429817848        0.7925055530
 O          5.2971230630        2.0825037085       -1.5252677800
 C          4.6474270286        0.0845465920        0.1055249774
 C          4.9497143596       -0.8391635248       -0.8750022321
 C          4.9811455152       -2.1836049368       -0.5426008732
 C          4.6964445759       -2.5800566736        0.7551291431
 C          4.3917278967       -1.6401025344        1.7273662709
 C          4.3655067171       -0.2932483419        1.4029441493
 H          4.1373972594        0.4675364827        2.1310791241
 H          4.1703535610       -1.9507098845        2.7358307003
 H          4.7127271540       -3.6281307343        1.0096027611
 H          5.2227447295       -2.9171577078       -1.2950810812
 H          5.1669260963       -0.4884135844       -1.8713432187
 H          2.8011162559        1.6260651427       -1.7862023528
 H          2.3829425241        2.7909967709        1.5933939235
 H          0.7196020023        1.7986370723        3.1508125681
 H         -0.6125096771       -0.1552532471        2.4452902097
 H         -0.7568257494       -2.0648286254        1.0085514409
 C          0.0788630884       -2.3406913388       -0.9407440723
 C          1.2945363101       -3.1383543579       -0.5761387071
 C         -0.0135836332       -3.8301518894       -0.8115887508
 H         -0.1337665998       -4.4170586783       -1.7098441435
 H         -0.5448582024       -4.2257232071        0.0414179335
 H          2.0775640230       -3.2505606373       -1.3100903796
 H          1.6540903542       -3.0572897176        0.4383408314
 H          0.0236353186       -1.9265786486       -1.9401891977
