  62
        -98.94445635
 C         -2.6490096661       -1.3029081160        0.1173358038
 C         -2.5725013613       -0.2947042680       -0.8739936205
 C         -3.5799825515        0.7728694599       -0.7809773473
 C         -4.5018195570        0.7313885027        0.1977994111
 C         -5.5489373093        1.7790559367        0.4379739122
 C         -5.0487447003        2.8487714545        1.4187489263
 C         -3.6672680018        3.4059808733        1.0744309003
 H         -3.4323949061        4.1741912332        1.8143522872
 H         -2.9218713588        2.6149104745        1.1874942640
 C         -3.5569523688        4.0047691246       -0.3347173965
 H         -4.5524263962        4.2172097354       -0.7264773080
 H         -3.0233065204        4.9553564358       -0.2702871881
 C         -2.7943050717        3.1353831137       -1.3365662601
 H         -1.8297217591        2.8431197876       -0.9113020605
 H         -2.5869626055        3.7411801089       -2.2230853364
 C         -3.5200756367        1.8685585453       -1.8076796192
 H         -4.5220084028        2.1270311576       -2.1565066180
 H         -2.9567825807        1.4590381298       -2.6514694552
 H         -5.7752276164        3.6629588755        1.4415244776
 H         -4.9998793158        2.4079077875        2.4169672161
 H         -5.8199769638        2.2386707067       -0.5103686931
 H         -6.4295666848        1.2937712833        0.8619326222
 O         -4.5533446012       -0.2610541537        1.1219313738
 C         -3.6221901115       -1.2845431257        1.1196731033
 O         -3.7664376823       -2.1109647865        2.0422432016
 H          0.4393840824       -1.7152000354       -1.4752269773
 C          0.6434290280       -1.5209555989       -0.4344631500
 C         -0.2981768310       -1.8525277749        0.5261313145
 C         -0.0234389187       -1.5586633794        1.8591678377
 C          1.1665710728       -0.9541828332        2.2171228224
 C          2.1031328040       -0.6195238759        1.2537432065
 C          1.8298446499       -0.8913298816       -0.0793464292
 N          2.7669988825       -0.5449667094       -1.0671081716
 S          3.4664836392        0.9789796612       -1.0050267625
 O          2.6002350500        1.9472031982       -0.3731623205
 O          3.8705731888        1.2654428693       -2.3644451286
 C          4.9263782140        0.7246693449       -0.0155175501
 C          5.1882567175        1.5577294642        1.0543737725
 C          6.3369380447        1.3485663268        1.8019642038
 C          7.1995907044        0.3162186586        1.4673175587
 C          6.9237884506       -0.5100246912        0.3879374408
 C          5.7780419131       -0.3054845465       -0.3639337992
 H          5.5286835248       -0.9234440839       -1.2101673083
 H          7.5967721952       -1.3121049558        0.1309540693
 H          8.0919115947        0.1546570270        2.0512554035
 H          6.5528327450        1.9903918034        2.6410124369
 H          4.4854231562        2.3436968238        1.2815137530
 H          2.4569043069       -0.7563273049       -2.0049706963
 H          3.0272276349       -0.1353564044        1.5243463539
 H          1.3675859421       -0.7366338799        3.2552033637
 H         -0.7653105368       -1.7989758938        2.6085235847
 C         -1.6405978355       -2.4408795012        0.1665479526
 H         -1.9602844087       -3.0897261485        0.9925797067
 C         -1.6368492829       -3.2499706451       -1.1133569624
 C         -0.9718664819       -4.5926529075       -1.1280035919
 C         -2.4657307835       -4.4950413504       -1.1926278298
 H         -2.9590775585       -4.7256322599       -2.1249975140
 H         -3.0360113881       -4.7717707064       -0.3178978504
 H         -0.4376724468       -4.8949457198       -2.0157686386
 H         -0.5260231827       -4.9358014604       -0.2067472650
 H         -1.5758989576       -2.6420288541       -2.0073425141
 O         -1.7180429423       -0.2787437377       -1.7996991303
