  62
        -98.94491866
 C          1.9580129868        0.8525088473        0.0718782345
 C          2.2568903408       -0.1122012809        1.0612171819
 C          2.3616904536       -1.5002187747        0.5954381278
 C          2.1376411609       -1.7755511652       -0.7026508403
 C          2.2457812190       -3.1400159375       -1.3190929590
 C          3.6619314802       -3.4021234486       -1.8509991080
 C          4.7677904454       -3.0787130993       -0.8463320126
 H          4.7727499232       -2.0027465654       -0.6581444827
 H          5.7199568537       -3.3280875168       -1.3193029073
 C          4.6490482147       -3.8251824725        0.4896432119
 H          5.6332929834       -4.2093218538        0.7652472270
 H          3.9851840905       -4.6829230430        0.3769186336
 C          4.1657869304       -2.9624342771        1.6568393484
 H          4.7703568345       -2.0540241744        1.7162545856
 H          4.3231003400       -3.5222889293        2.5825103619
 C          2.6877538450       -2.5529953744        1.6174369582
 H          2.4357641815       -2.1138395436        2.5874856467
 H          2.0614638075       -3.4360233989        1.4718540065
 H          3.8155422601       -2.7865138153       -2.7401720407
 H          3.7303308703       -4.4506234650       -2.1463347891
 H          1.5355763182       -3.1962157404       -2.1459879256
 H          1.9790902026       -3.8886520356       -0.5753158534
 O          1.8348917444       -0.8245294457       -1.6225052052
 C          1.7249934310        0.5080540967       -1.2597421840
 O          1.4366743335        1.2757133977       -2.1984240097
 O          2.4266033034        0.1757768993        2.2786086159
 C          1.7844072814        2.3030081220        0.4832257565
 C          0.3832444674        2.7544874628        0.1497551855
 C          0.0884966566        3.9868157992       -0.4186920984
 C         -1.2188184131        4.3166022698       -0.7332437444
 C         -2.2511997523        3.4271450933       -0.5015533872
 C         -1.9684474745        2.1992133418        0.0873190645
 C         -0.6640176248        1.8843988831        0.4261264590
 H         -0.4574312685        0.9260612014        0.8816893270
 N         -2.9928858828        1.2750858972        0.3628475807
 S         -2.6316770309       -0.3702124762        0.2291836460
 O         -2.0117842779       -0.8100382724        1.4551881537
 O         -1.9039863537       -0.6343087995       -0.9918774170
 C         -4.2812986828       -1.0415559822        0.1267149952
 C         -4.8066230729       -1.3716669466       -1.1080948715
 C         -6.1021133065       -1.8603796473       -1.1766716662
 C         -6.8470532560       -2.0062075396       -0.0161409490
 C         -6.3059305128       -1.6710947545        1.2163571556
 C         -5.0110190670       -1.1833911191        1.2920978797
 H         -4.5435402025       -0.9183646586        2.2259950020
 H         -6.8868947300       -1.7883759951        2.1167858984
 H         -7.8548078920       -2.3861831419       -0.0725260376
 H         -6.5235867701       -2.1246718859       -2.1330863548
 H         -4.1861325029       -1.2476197779       -1.9813788028
 H         -3.8564372351        1.4996160356       -0.1134378706
 H         -3.2659758079        3.6764327127       -0.7719720944
 H         -1.4336326819        5.2740979988       -1.1830522254
 H          0.8835827077        4.6832026142       -0.6292850655
 H          1.8998804484        2.3137501021        1.5780177044
 C          2.8632923562        3.1697725603       -0.1316909908
 C          3.3457905225        4.3982020715        0.5787635130
 C          4.2227906559        3.1861660422        0.4984223108
 H          5.0890308785        3.2143797084       -0.1453288344
 H          4.3603022715        2.5916564544        1.3899883376
 H          3.6144128089        5.2620621182       -0.0102668165
 H          2.8953062518        4.6335437680        1.5311044854
 H          2.8122930068        3.1863013928       -1.2147200714
