  62
        -98.94323580
 C         -1.3989462293       -1.4477513265       -0.3130053868
 C         -0.2551248840       -1.6914936324       -1.1053134258
 C          0.8096086011       -2.5084579127       -0.4956448231
 C          0.6462645773       -2.9480622558        0.7655198151
 C          1.6159475199       -3.7855482864        1.5537283291
 C          2.7706591922       -2.9594863646        2.1593321315
 C          3.1987474913       -1.7415997715        1.3402892391
 H          2.3147817909       -1.1363674919        1.1273033929
 H          3.8437833297       -1.1229038558        1.9713791637
 C          3.9672967825       -2.0504927567        0.0543585684
 H          4.0751686579       -1.1173647641       -0.5046941515
 H          4.9702339806       -2.3898002755        0.3268757777
 C          3.3591799787       -3.1132708445       -0.8585904352
 H          4.0185390928       -3.2119892376       -1.7262259864
 H          3.3655744233       -4.0748249211       -0.3517929380
 C          1.9687694929       -2.8061520182       -1.4140481872
 H          1.6628193778       -3.6482197345       -2.0476580375
 H          2.0331035621       -1.9404441480       -2.0814408858
 H          2.4408106893       -2.5877670057        3.1319085843
 H          3.6282671229       -3.6145736918        2.3207992824
 H          1.0519096767       -4.2453490504        2.3677444715
 H          1.9912350942       -4.5834034391        0.9172289347
 O         -0.4502733317       -2.6479287985        1.5130412036
 C         -1.4892458482       -1.8862926328        1.0073389657
 O         -2.4225984417       -1.6908763307        1.8100563422
 O         -0.1258914963       -1.2469651980       -2.2789008410
 C         -2.5300228381       -0.6124182605       -0.8892669185
 C         -2.6616914695        0.6497245246       -0.0740564034
 C         -3.8460119390        1.0884565482        0.5011484534
 C         -3.8549644692        2.2228275185        1.2953576066
 C         -2.6908838777        2.9250173208        1.5459541354
 C         -1.5024071469        2.5025822234        0.9590293285
 C         -1.5065130313        1.3946171044        0.1301712554
 H         -0.5855033129        1.0694011088       -0.3295684657
 N         -0.2998232984        3.1880784269        1.1800510927
 S          1.1545054055        2.3561363944        1.1931125223
 O          1.0035011154        0.9955698923        1.6512377370
 O          2.0351400565        3.1981016134        1.9773063267
 C          1.6823175664        2.4133907214       -0.5053445319
 C          1.7731151729        3.6520054514       -1.1102778196
 C          2.1872578700        3.7236787012       -2.4300021594
 C          2.5031462212        2.5621348464       -3.1193607070
 C          2.4125094302        1.3275727229       -2.4964294936
 C          1.9992035563        1.2504794653       -1.1759929177
 H          1.9017875915        0.3060167848       -0.6639865211
 H          2.6462536292        0.4215239550       -3.0325723051
 H          2.8211369263        2.6170325554       -4.1485645352
 H          2.2598412326        4.6819421810       -2.9185841059
 H          1.5219041533        4.5298998389       -0.5389713419
 H         -0.3379921627        3.9036692994        1.8908291547
 H         -2.6956656097        3.7885171038        2.1936360172
 H         -4.7798114710        2.5517992221        1.7447344445
 H         -4.7573682034        0.5352458192        0.3449327737
 H         -2.2041653256       -0.3378924408       -1.9034621706
 C         -3.8062373454       -1.4196976247       -0.9843553798
 C         -4.8491722327       -1.0589225542       -1.9986333238
 C         -4.0235668415       -2.2959754749       -2.1802262543
 H         -4.4926094812       -3.2575711716       -2.0353728389
 H         -3.2574231473       -2.2945163799       -2.9416592013
 H         -5.8889517181       -1.1727200115       -1.7318932552
 H         -4.6477104576       -0.2165568973       -2.6426805611
 H         -4.1332325113       -1.7969501622       -0.0218960146
