  62
        -98.94414394
 C         -2.1983166242       -0.7765246613       -0.0257155838
 C         -2.9007516246       -0.0786708057        0.9845539191
 C         -3.6944695898        1.0736615650        0.5373190296
 C         -3.6793145709        1.4164796943       -0.7641144610
 C         -4.4810515693        2.5337407547       -1.3651324725
 C         -5.8475302057        2.0347883899       -1.8555833670
 C         -6.6068606892        1.1999292285       -0.8244378086
 H         -7.5669055763        0.9289385565       -1.2688460443
 H         -6.0613562698        0.2703387687       -0.6465556831
 C         -6.8465290753        1.9098955020        0.5153044314
 H         -6.7162594840        2.9858047041        0.3933362011
 H         -7.8811949826        1.7413270591        0.8211392397
 C         -5.9589299402        1.4192384970        1.6606465014
 H         -6.3543233044        1.8250065767        2.5956947912
 H         -6.0155638863        0.3297659502        1.7274273047
 C         -4.4806446763        1.8203457829        1.5781183768
 H         -4.3999097788        2.8984580948        1.4238250389
 H         -4.0156154249        1.5755621762        2.5379182631
 H         -5.6924040408        1.4209084789       -2.7457161827
 H         -6.4487073739        2.9002956738       -2.1398582799
 H         -4.6140567878        3.3191620748       -0.6235839400
 H         -3.9257250690        2.9372757038       -2.2134572766
 O         -2.9574061428        0.7476215260       -1.6988283793
 C         -2.2062049921       -0.3687859235       -1.3600394395
 O         -1.6023450504       -0.8911169361       -2.3145842196
 H          0.0637225315        0.1838738801        0.8571283639
 C          0.6664458552       -0.5710103083        0.3657325393
 C          0.0780758124       -1.7802902879        0.0148644264
 C          0.8678046143       -2.7445864271       -0.5968918123
 C          2.2013420500       -2.4899865958       -0.8679308426
 C          2.7759934967       -1.2777392060       -0.5352127970
 C          1.9998929325       -0.3108839383        0.0911196289
 N          2.5732299387        0.9288761304        0.4272612208
 S          3.9955437903        0.9231936539        1.3215154067
 O          4.0876568866       -0.2501799226        2.1592207195
 O          4.0204301155        2.2007976439        1.9999653862
 C          5.2785501251        0.8960993569        0.0877149876
 C          5.2990106758        1.9083374572       -0.8516517907
 C          6.2940119230        1.9056924937       -1.8160638801
 C          7.2471709607        0.8980161158       -1.8233608292
 C          7.2150582372       -0.1089920813       -0.8709154628
 C          6.2220447329       -0.1125121630        0.0964120359
 H          6.1537471034       -0.8772950447        0.8535708924
 H          7.9572779955       -0.8909328992       -0.8781367388
 H          8.0198494248        0.8982483758       -2.5758593761
 H          6.3222713127        2.6872440984       -2.5581758854
 H          4.5418817455        2.6735651688       -0.8090917825
 H          1.9138658416        1.5854691003        0.8194295396
 H          3.8114357484       -1.0735416508       -0.7529298565
 H          2.8007274884       -3.2465277950       -1.3507863563
 H          0.4387152109       -3.6955109263       -0.8662706171
 C         -1.3768802684       -1.9940137798        0.3549747256
 H         -1.4588763417       -2.0712878697        1.4501414479
 C         -1.9685103180       -3.2425552932       -0.2655188659
 C         -1.8337818025       -4.5673468793        0.4220299320
 C         -3.1618587921       -3.8747614218        0.3837649194
 H         -3.9392343382       -4.2790434817       -0.2470672586
 H         -3.5298432709       -3.4206722663        1.2925434075
 H         -1.7016946765       -5.4516000498       -0.1829843249
 H         -1.3025102106       -4.5913136304        1.3615673830
 H         -1.9419135741       -3.2196418400       -1.3491526029
 O         -2.8603068034       -0.4002911462        2.2041105418
