  62
        -98.94502383
 C          2.5507935474        0.1327282758        0.4339927014
 C          2.3888040791       -0.5415407149       -0.7999997980
 C          2.1815104999       -1.9933723035       -0.7141787598
 C          2.1601432269       -2.5869035640        0.4927415324
 C          1.9569849465       -4.0563100125        0.7234575264
 C          0.4800487400       -4.4053012622        0.9467383212
 C         -0.4679275679       -3.8299940761       -0.1058712646
 H         -1.4667638142       -4.2094319899        0.1230387823
 H         -0.5147500475       -2.7436664850        0.0020081624
 C         -0.1097175858       -4.1855093558       -1.5553675013
 H          0.5441642566       -5.0586317448       -1.5738451908
 H         -1.0277550560       -4.4555264714       -2.0814448193
 C          0.5366017035       -3.0467806993       -2.3471155928
 H         -0.0452844329       -2.1319099865       -2.2055677846
 H          0.4974944120       -3.3041392942       -3.4091775719
 C          2.0002992035       -2.7417629551       -2.0041494292
 H          2.5804328582       -3.6671535666       -2.0012188522
 H          2.3980794690       -2.0874184608       -2.7854589300
 H          0.3869680785       -5.4933903081        0.9667052879
 H          0.1756753115       -4.0192437164        1.9226676564
 H          2.3436338696       -4.6051582463       -0.1333976151
 H          2.5241287672       -4.3417273724        1.6116804063
 O          2.3142721023       -1.9045087488        1.6578353769
 C          2.4875206736       -0.5301245394        1.6575847430
 O          2.5848969094       -0.0226261956        2.7958640555
 O          2.4275150739        0.0380287048       -1.9173565799
 C          2.7353246664        1.6384451815        0.4491310410
 C          1.5837592404        2.3150984824       -0.2563991495
 C          1.7327300667        3.4589293456       -1.0300888654
 C          0.6316407351        4.0399785338       -1.6360794305
 C         -0.6305865515        3.4960018085       -1.4908971047
 C         -0.7894232370        2.3473470006       -0.7212640740
 C          0.3105290348        1.7839437147       -0.0979746837
 H          0.1770113074        0.9038020086        0.5142514895
 N         -2.0489333608        1.7368655520       -0.6048618788
 S         -2.3449951130        0.5928866531        0.5903216849
 O         -2.0978490589        1.1534325509        1.9022294862
 O         -1.6389982242       -0.6192818186        0.2631248260
 C         -4.0961671046        0.3565832187        0.3552234291
 C         -4.5266233048       -0.5566565972       -0.5882204043
 C         -5.8879448961       -0.7184827604       -0.7919234694
 C         -6.7911122413        0.0322973765       -0.0541720591
 C         -6.3445413956        0.9434137181        0.8912119511
 C         -4.9844800541        1.1098946772        1.0995800489
 H         -4.5911447978        1.7964328825        1.8320554004
 H         -7.0488162181        1.5227474705        1.4661605324
 H         -7.8498883734       -0.0961147391       -0.2143685790
 H         -6.2384175486       -1.4287895993       -1.5231957395
 H         -3.7871168738       -1.1227994662       -1.1304884467
 H         -2.8253279013        2.3668064226       -0.7468161464
 H         -1.4848209920        3.9441293559       -1.9743391447
 H          0.7601943566        4.9294239858       -2.2341444523
 H          2.7104292693        3.8934014516       -1.1606470958
 H          2.7075891728        1.9384329029        1.5082954782
 C          4.0876309667        2.0070415831       -0.1279005360
 C          4.8376383666        3.1962482755        0.3904029181
 C          5.3084138535        1.8122247339        0.7185420444
 H          6.2089397431        1.4452481832        0.2497060799
 H          5.1567213284        1.4421953783        1.7225573849
 H          5.4207516884        3.7811255013       -0.3049168698
 H          4.3786285032        3.7726914148        1.1795468166
 H          4.1649710190        1.7684972937       -1.1824844396
