  62
        -98.94053451
 C          2.3647076466        0.7991188337       -0.1184397718
 C          3.5689242103        1.0802742469        0.5706040468
 C          4.7911182437        0.5353033287       -0.0300379283
 C          4.7163869932       -0.1588318322       -1.1803866167
 C          5.8762189668       -0.7589901205       -1.9280297294
 C          6.3014315283       -2.1406882680       -1.4120871438
 C          7.0249125311       -2.1368156642       -0.0648570236
 H          7.4546261888       -3.1312480555        0.0710416284
 H          7.8517123954       -1.4268301617       -0.0999751764
 C          6.1232650065       -1.8206190074        1.1366567090
 H          5.0767116532       -1.9481093208        0.8498807745
 H          6.3234811528       -2.5329806994        1.9401809296
 C          6.3098720031       -0.4187376989        1.7173408042
 H          5.5988676334       -0.2895852855        2.5374535673
 H          7.3175313725       -0.3228152863        2.1276134426
 C          6.0817159985        0.7167263708        0.7107098193
 H          6.9167371937        0.7751471316        0.0131515606
 H          6.0186070128        1.6575660656        1.2627836341
 H          5.4154697947       -2.7767068265       -1.3487253617
 H          6.9702353218       -2.5754702152       -2.1584056754
 H          6.7270034591       -0.0780651813       -1.8933005658
 H          5.5551892527       -0.8629287202       -2.9666358470
 O          3.5406565572       -0.3871785618       -1.8245212032
 C          2.3359735697        0.0605239315       -1.3011616139
 O          1.3371442363       -0.2543864034       -1.9757420254
 O          3.6185931948        1.7502164387        1.6370613320
 C          1.0558355348        1.3072444788        0.4574046427
 C          0.1385971950        0.1485318865        0.7614051403
 C          0.6147714353       -0.8909494949        1.5579441608
 C         -0.1882632440       -1.9712672190        1.8652206918
 C         -1.4890417554       -2.0339271648        1.3960795088
 C         -1.9733408100       -1.0040174518        0.5995322563
 C         -1.1614995095        0.0791464819        0.2892233815
 H         -1.5659012881        0.8622020826       -0.3295424936
 N         -3.2788946040       -1.0508209507        0.0856507635
 S         -4.1421157114        0.3911873917       -0.0661192875
 O         -3.7828951498        1.0321739455       -1.3056350372
 O         -3.9903020606        1.1852570271        1.1324192994
 C         -5.8047842778       -0.2453202349       -0.1777523293
 C         -6.2830245870       -0.6473592247       -1.4104933017
 C         -7.5623389355       -1.1737422085       -1.4935184304
 C         -8.3374868846       -1.2897121767       -0.3491666400
 C         -7.8450200010       -0.8797900076        0.8807760088
 C         -6.5661412021       -0.3531838205        0.9709902836
 H         -6.1458339247       -0.0122525805        1.9035012556
 H         -8.4515437198       -0.9678465762        1.7677035941
 H         -9.3328531063       -1.6994605158       -0.4170265846
 H         -7.9496259473       -1.4901707116       -2.4485612358
 H         -5.6470660638       -0.5302564290       -2.2726048161
 H         -3.8401094063       -1.7826398351        0.4991731069
 H         -2.1190147089       -2.8766449752        1.6373227521
 H          0.1971243986       -2.7689658835        2.4825229842
 H          1.6287364668       -0.8374451180        1.9313028393
 H          1.3229286497        1.7879576275        1.4109567185
 C          0.4376092906        2.3474340200       -0.4516149429
 C         -0.5062706500        3.3676389149        0.1087590171
 C          0.8666917070        3.7775201907       -0.3299106396
 H          0.9674477412        4.3638282142       -1.2308368783
 H          1.5968860675        4.0131600148        0.4304525008
 H         -1.3555134422        3.6647197853       -0.4888307386
 H         -0.7147357066        3.3260989907        1.1674910896
 H          0.2404163582        1.9673908872       -1.4484623394
