  62
        -98.94185976
 C         -1.7162425455       -0.1216044459        0.4588578266
 C         -2.8275443662       -0.8462715283        0.9628741291
 C         -4.1407602547       -0.2129908158        0.8026601889
 C         -4.2250479948        1.0155670580        0.2621775618
 C         -5.4882856817        1.8050234174        0.0502246441
 C         -6.2338832966        1.4517613540       -1.2440833484
 C         -6.9442615900        0.0974433003       -1.2372545211
 H         -7.5783914566        0.0257939573       -0.3530610379
 H         -7.5992351135        0.0753542760       -2.1105428785
 C         -6.0017195614       -1.1128371597       -1.2969883666
 H         -5.0142265417       -0.7882211308       -1.6338962365
 H         -6.3717898188       -1.8266306948       -2.0364641357
 C         -5.8525145975       -1.8659387422        0.0251671543
 H         -5.1367768932       -2.6788772545       -0.1223847939
 H         -6.8111109552       -2.3086606393        0.3042729959
 C         -5.3547652973       -1.0014955053        1.1911116103
 H         -6.1479274427       -0.3368542393        1.5325561466
 H         -5.0722340955       -1.6633563190        2.0133279160
 H         -5.5262627014        1.4883561516       -2.0758447194
 H         -6.9824307865        2.2297582501       -1.4113031495
 H         -5.1935411528        2.8556050918        0.0022962253
 H         -6.1533571810        1.6690560779        0.9035688215
 O         -3.1300031003        1.7094949189       -0.1438640359
 C         -1.8529987999        1.1593331588       -0.0785221177
 O         -0.9640825735        1.9141340291       -0.5136600671
 O         -2.7246218540       -1.9683483058        1.5250896409
 C         -0.3519277985       -0.7783641097        0.5688192716
 C          0.6731838336        0.1965195314        1.0863302258
 C          0.5727451784        0.6425137217        2.4019113625
 C          1.4843314439        1.5450224893        2.9133548442
 C          2.5295131192        2.0052858144        2.1312301525
 C          2.6371633083        1.5679795304        0.8170923627
 C          1.7125554537        0.6692795307        0.3019362148
 H          1.7902033704        0.3850272759       -0.7333666433
 N          3.6834267208        2.0144062372       -0.0003689145
 S          4.3443713767        1.0073539823       -1.1516738615
 O          5.6864147409        1.5163458932       -1.3441937162
 O          3.5210626567        0.9601416904       -2.3333696056
 C          4.4119773181       -0.6068963799       -0.3914758107
 C          5.0332226488       -0.7348513550        0.8351902245
 C          5.0825880149       -1.9824623397        1.4351452917
 C          4.5162491600       -3.0775148785        0.8006736051
 C          3.9049366766       -2.9353255159       -0.4350894815
 C          3.8500044410       -1.6884656031       -1.0378666243
 H          3.3778158327       -1.5313900973       -1.9946976472
 H          3.4670396443       -3.7883183340       -0.9290292829
 H          4.5519647901       -4.0476950344        1.2705338198
 H          5.5598594648       -2.0969533638        2.3949411970
 H          5.4713922409        0.1327098590        1.3006473822
 H          4.3736458679        2.5941000535        0.4521862714
 H          3.2449980058        2.7092275382        2.5281442783
 H          1.3876840901        1.8888495742        3.9321277604
 H         -0.2416613142        0.2804042395        3.0144510027
 H         -0.4903122567       -1.5614760891        1.3330329040
 C          0.0995522106       -1.4873905672       -0.6992566349
 C         -0.8899990149       -2.1238062727       -1.6272180468
 C         -0.1240277257       -0.9129232953       -2.0645837761
 H          0.6540982459       -1.0276257630       -2.8058563186
 H         -0.6418553444        0.0314619913       -2.1328745971
 H         -0.6430527899       -3.0779593764       -2.0675602822
 H         -1.9391739306       -2.0072327091       -1.3973911620
 H          1.0312818180       -2.0238800845       -0.5461659405
