  62
        -98.93144766
 C         -1.6768966113        0.0211611831       -0.9705146373
 C         -2.8975993440        0.7312730763       -0.8695826396
 C         -4.0990808068       -0.0787267119       -0.5846235201
 C         -3.9910098347       -1.4101911031       -0.4478547821
 C         -5.0813344341       -2.4222289191       -0.1986388520
 C         -6.1481589992       -2.0715263253        0.8480285657
 C         -5.6514437941       -1.2115344868        2.0192210873
 H         -5.9562920684       -1.6798059059        2.9570446273
 H         -4.5609039906       -1.1682278717        2.0165701743
 C         -6.2188228626        0.2099379172        1.9988381240
 H         -7.2806104913        0.1595700545        1.7476391371
 H         -6.1407826645        0.6332537098        3.0032349462
 C         -5.5246930619        1.1807304695        1.0442734547
 H         -4.5247046240        1.4154256442        1.4190069373
 H         -6.0925550821        2.1142820390        1.0424954714
 C         -5.3756478537        0.6918736706       -0.4059612369
 H         -6.2422522488        0.1145673586       -0.7186493240
 H         -5.2909825491        1.5715927713       -1.0497020880
 H         -6.9809137318       -1.5631652334        0.3638723223
 H         -6.5374361425       -3.0167844926        1.2301206844
 H         -5.5727455059       -2.6345931997       -1.1525909658
 H         -4.5580013452       -3.3325764301        0.1032022370
 O         -2.7946791303       -2.0545477279       -0.5604347665
 C         -1.6227749156       -1.3652630636       -0.8089337618
 O         -0.6085381251       -2.0890147242       -0.8733824453
 H          2.1479178745        0.1790602665       -0.3766459162
 C          1.6112840633        0.8152231635        0.3095579709
 C          0.3016093461        1.1724505967        0.0262781833
 C         -0.3864018715        1.9747690847        0.9313091910
 C          0.2347928787        2.4141726478        2.0859265941
 C          1.5499718666        2.0761841418        2.3529136711
 C          2.2445378105        1.2702613883        1.4579548880
 N          3.5667638103        0.8933270358        1.7147179229
 S          4.6435709148        0.5649937577        0.4818223218
 O          5.9433952110        0.6673381317        1.1092498866
 O          4.4226080798        1.4174782055       -0.6625421646
 C          4.3284446688       -1.1367913495        0.0686389192
 C          4.3058060957       -2.0623393754        1.0928724885
 C          4.0716240125       -3.3928553577        0.7871271282
 C          3.8677104890       -3.7739383916       -0.5304263681
 C          3.8988972142       -2.8335628610       -1.5479722052
 C          4.1320607843       -1.5008149828       -1.2482000668
 H          4.1559580144       -0.7369711752       -2.0100411424
 H          3.7362217572       -3.1313324373       -2.5714269051
 H          3.6801751889       -4.8094752169       -0.7666992757
 H          4.0446861032       -4.1282164056        1.5751562685
 H          4.4694666915       -1.7292461878        2.1042148874
 H          4.0006883543        1.3310387730        2.5132056952
 H          2.0354662991        2.4291834990        3.2499567091
 H         -0.3073112554        3.0371789936        2.7815226544
 H         -1.4052384945        2.2570075229        0.7141257827
 C         -0.3412272522        0.6897426782       -1.2480863708
 H          0.2986244035       -0.1110939585       -1.6523492363
 C         -0.4186184875        1.7756822561       -2.3134453911
 C         -0.2330055386        3.2336272206       -2.0344705346
 C          0.8356584472        2.4713772397       -2.7553511660
 H          0.9829244269        2.6541801580       -3.8093000997
 H          1.7467418557        2.2524848472       -2.2158414705
 H         -0.0408787213        3.5422876209       -1.0192488012
 H         -0.8432686407        3.9288327901       -2.5906627746
 H         -1.1335568933        1.5262934838       -3.0911713247
 O         -3.0073769434        1.9752290129       -1.0122149510
