  62
        -98.93342183
 C         -1.6184889740       -0.2883828255        0.0724474896
 C         -2.7443551424       -1.0433115586        0.4838015086
 C         -4.0749171620       -0.4641642490        0.2222813912
 C         -4.1530945764        0.7608262408       -0.3266315697
 C         -5.3802155651        1.5575631159       -0.6915544495
 C         -6.5256022618        1.5687510692        0.3325813699
 C         -7.7539097059        0.7764759297       -0.1188337175
 H         -8.6310324006        1.1644727191        0.4039245585
 H         -7.9072902107        0.9518076637       -1.1857452141
 C         -7.6895804718       -0.7275836853        0.1414983169
 H         -7.7908088298       -0.9133485132        1.2129643397
 H         -8.5515511274       -1.1848589592       -0.3501013354
 C         -6.4186782338       -1.4231215257       -0.3502087335
 H         -6.1249297034       -1.0364215479       -1.3255459730
 H         -6.6485390798       -2.4823714243       -0.4838841344
 C         -5.2421257433       -1.3204425937        0.6319856633
 H         -5.6004167270       -0.9843925860        1.6092426025
 H         -4.8123083313       -2.3134332587        0.7963669051
 H         -6.1680760171        1.2002318716        1.2927818395
 H         -6.8301064327        2.6064453995        0.4785537794
 H         -5.0176740080        2.5752097531       -0.8541315254
 H         -5.7494131101        1.2018496803       -1.6568964545
 O         -3.0416003808        1.4750631013       -0.6620724137
 C         -1.7557067575        0.9842377067       -0.4818767976
 O         -0.8640595952        1.7736059062       -0.8431903940
 H          1.9631226760        0.3684484514       -0.7689540886
 C          1.7709704906        0.6436961411        0.2537399144
 C          0.6803817424        0.1226703476        0.9305849693
 C          0.4304192344        0.5573130624        2.2299937000
 C          1.2468260047        1.4953676966        2.8304653392
 C          2.3437351228        2.0039165831        2.1565671158
 C          2.6002100241        1.5785449623        0.8592158505
 N          3.7018634722        2.0741606608        0.1503310398
 S          4.5180758979        1.1051747231       -0.9317770296
 O          5.8480439613        1.6754479277       -0.9889787223
 O          3.8189702981        1.0285657408       -2.1894610384
 C          4.5837300528       -0.5091334853       -0.1717885783
 C          5.0985755267       -0.6183445357        1.1049388003
 C          5.1462162204       -1.8662505646        1.7044229517
 C          4.6839119639       -2.9799585324        1.0200562673
 C          4.1786811122       -2.8559680753       -0.2646156408
 C          4.1261946870       -1.6091158059       -0.8675585738
 H          3.7351228297       -1.4663213940       -1.8624382753
 H          3.8217425488       -3.7234067546       -0.7970380213
 H          4.7182992009       -3.9505543568        1.4891121954
 H          5.5412465426       -1.9667593863        2.7024042730
 H          5.4579215551        0.2638743453        1.6088098790
 H          4.3169596839        2.6824966387        0.6687398031
 H          2.9851207844        2.7358556828        2.6233080187
 H          1.0347677476        1.8295182820        3.8348904684
 H         -0.4244123960        0.1570917938        2.7579744307
 C         -0.2462547443       -0.8919646297        0.3127523771
 H         -0.4262593342       -1.6841856432        1.0584023231
 C          0.3580824674       -1.5743391006       -0.9049348504
 C         -0.5063022364       -2.2398887750       -1.9321222962
 C          0.2558892987       -0.9991958247       -2.2843894456
 H          1.1103213569       -1.0811706119       -2.9412095757
 H         -0.2862760289       -0.0738761921       -2.4035104527
 H         -1.5770604991       -2.1622493479       -1.8118988211
 H         -0.1798919083       -3.1814339229       -2.3471052242
 H          1.2882390741       -2.0776190111       -0.6580284842
 O         -2.6443824655       -2.1647422568        1.0499464079
