  62
        -98.94112827
 C          2.5561153107        1.2305960893        0.4196718412
 C          2.4812800207        0.4487640494       -0.7602197689
 C          3.3520025703       -0.7382253908       -0.7986821088
 C          4.1285005500       -1.0283226112        0.2600425313
 C          5.0231752996       -2.2282895914        0.3690511114
 C          4.2893127991       -3.4129518013        1.0126637312
 C          2.9204746691       -3.7015368208        0.3955188709
 H          2.5092540488       -4.5746934907        0.9071170907
 H          2.2478841794       -2.8652655706        0.6029500408
 C          2.9478691294       -3.9618598207       -1.1170639791
 H          3.9622285893       -4.2102029510       -1.4317566289
 H          2.3185903091       -4.8276309705       -1.3339214493
 C          2.4215144899       -2.8061811505       -1.9705453392
 H          1.4392359899       -2.4944244602       -1.6034705093
 H          2.2827828400       -3.1741774504       -2.9907635992
 C          3.3254022803       -1.5692274107       -2.0504528989
 H          4.3357149703       -1.8705964710       -2.3350659287
 H          2.9249771407       -0.9192870906       -2.8340637189
 H          4.9211702388       -4.2986833515        0.9270121212
 H          4.1472086289       -3.1978595513        2.0742900912
 H          5.3766793397       -2.5019864915       -0.6230319185
 H          5.8798942096       -1.9626999318        0.9907227416
 O          4.1454514100       -0.2759020312        1.3900484014
 C          3.3510660103        0.8537402990        1.5048041013
 O          3.4340391603        1.4249786289        2.6107935113
 H          0.1238166102        0.6319639300        1.6293925706
 C         -0.3893003394        1.1795507602        0.8466723805
 C          0.2873789610        2.1966412300        0.1839633508
 C         -0.3734147786        2.8827121303       -0.8254532693
 C         -1.6742258886        2.5491880808       -1.1604925496
 C         -2.3443121890        1.5379566309       -0.4970948798
 C         -1.6910515795        0.8418261306        0.5117319503
 N         -2.3655218099       -0.1785236192        1.2057104200
 S         -3.1805896201       -1.3500173989        0.3211122598
 O         -3.2535525907       -2.4962033989        1.2020468397
 O         -2.5716969699       -1.5707807290       -0.9697232301
 C         -4.8128161799       -0.6664259984        0.1239166695
 C         -5.4953912600       -0.2726945882        1.2582412894
 C         -6.7675112298        0.2595698022        1.1224234092
 C         -7.3336341495        0.3852884025       -0.1375743609
 C         -6.6372968594       -0.0192860977       -1.2661369808
 C         -5.3635966696       -0.5513778581       -1.1373012906
 H         -4.7811470795       -0.8723758182       -1.9864029105
 H         -7.0790012191        0.0785685625       -2.2448090709
 H         -8.3233151193        0.8013736228       -0.2406778611
 H         -7.3120124899        0.5753127323        1.9976990891
 H         -5.0210118302       -0.3900945384        2.2181801795
 H         -1.8118771102       -0.6074118394        1.9332101601
 H         -3.3552412591        1.2735523213       -0.7607918501
 H         -2.1736915483        3.0838034410       -1.9540680097
 H          0.1393317018        3.6581317402       -1.3699981392
 C          1.7087754510        2.4786777596        0.6056386411
 H          1.7037717809        2.6557697295        1.6942254511
 C          2.2915125715        3.7320184594       -0.0296966787
 C          3.7728489316        3.8974974590       -0.1877162484
 C          2.9038816318        3.7346027193       -1.3967191886
 H          2.7410934922        4.5961649994       -2.0278160186
 H          2.9338916516        2.8000476994       -1.9335579687
 H          4.4029132413        3.0705209588        0.1068378417
 H          4.2045352119        4.8667384188        0.0118600417
 H          1.7394544118        4.6213855196        0.2583369712
 O          1.7376135909        0.7163988997       -1.7381570891
