  62
        -98.93004298
 C         -2.5239856439       -1.2583709635        0.2872607735
 C         -2.6109558277       -0.1617018314       -0.6024770204
 C         -3.9678644892        0.3482865959       -0.8848720802
 C         -5.0323544279       -0.2191267915       -0.2891872200
 C         -6.5157839146        0.0527768867       -0.4278201507
 C         -7.0178270834        1.3494161747       -1.0580157182
 C         -6.7036294664        2.6137961308       -0.2594983016
 H         -7.0258971047        3.4765264431       -0.8466508317
 H         -7.2922958931        2.5996414922        0.6613147535
 C         -5.2397545025        2.7995791230        0.1328260925
 H         -5.1585597957        3.7396981161        0.6853560433
 H         -4.9379507636        2.0016608914        0.8147265630
 C         -4.2510851417        2.8586578054       -1.0303425164
 H         -4.5636815166        3.6278002759       -1.7392911694
 H         -3.2809444845        3.1544828860       -0.6213605424
 C         -4.0449403303        1.5394189474       -1.7955057538
 H         -4.8121721956        1.3956845898       -2.5526351229
 H         -3.0810323526        1.5967533007       -2.3094565288
 H         -8.1058892392        1.2617494354       -1.1218896018
 H         -6.6496138572        1.4421673812       -2.0754559060
 H         -6.9203653359       -0.7886629528       -1.0014385351
 H         -6.9282312496       -0.0370229249        0.5821221978
 O         -4.8952078631       -1.2641692922        0.5796017880
 C         -3.6579366162       -1.7895678874        0.9037389508
 O         -3.6982956787       -2.7101114576        1.7445668264
 H          1.2526539967       -1.2999900640       -0.4893966319
 C          1.0079264412       -0.6345136626        0.3238076390
 C         -0.1946798065       -0.7778574141        0.9961165358
 C         -0.4895757718        0.1113880267        2.0264593059
 C          0.3878536642        1.1241493282        2.3612043231
 C          1.5835728046        1.2706502167        1.6802373836
 C          1.8905317880        0.3867938551        0.6558275279
 N          3.0982195705        0.5379945518       -0.0492289270
 S          4.4877045355        0.8341282393        0.8639752461
 O          4.5135123548       -0.0330364734        2.0210182490
 O          4.5664338286        2.2474478362        1.1372582467
 C          5.7634842583        0.3690482592       -0.2904354380
 C          6.3074635701       -0.8994721523       -0.2192638396
 C          7.2803174977       -1.2639847281       -1.1367094832
 C          7.6875805727       -0.3600447712       -2.1063727082
 C          7.1320271269        0.9095612028       -2.1651006850
 C          6.1599462448        1.2812005985       -1.2500025358
 H          5.7070705283        2.2588711186       -1.2517937248
 H          7.4533086107        1.6098241976       -2.9191719175
 H          8.4449930639       -0.6461532156       -2.8189952664
 H          7.7162735752       -2.2490399194       -1.0917290527
 H          5.9666725773       -1.5660225987        0.5568341882
 H          3.2469454605       -0.2064798571       -0.7165787831
 H          2.2811229841        2.0536488698        1.9316427401
 H          0.1410422373        1.8079947641        3.1600393532
 H         -1.4253703842        0.0005856631        2.5589153595
 C         -1.1904547545       -1.8683964897        0.6827730733
 H         -1.3960557694       -2.4071919629        1.6230282459
 C         -0.6650893137       -2.9050912125       -0.2994466173
 C         -1.6042497295       -3.7127513452       -1.1435152588
 C         -0.7058173851       -2.6993157635       -1.7830074433
 H          0.1257230014       -3.0562488334       -2.3734098024
 H         -1.1387929132       -1.7812681555       -2.1468864836
 H         -1.3882477969       -4.7604771767       -1.2896199788
 H         -2.6591055372       -3.4913983002       -1.0701454180
 H          0.1957093127       -3.4351102152        0.0976543162
 O         -1.6153461909        0.3731338633       -1.1542355387
