  62
        -98.93782179
 C         -0.8978196928       -1.6631400299        0.1280445029
 C         -1.5354875537       -0.8199346995        1.0668836046
 C         -2.6461545619        0.0129219382        0.5707554949
 C         -2.9620544872       -0.0406211559       -0.7355524556
 C         -4.0938633828        0.6447102771       -1.4585181036
 C         -5.4651200156        0.5735490341       -0.7674390473
 C         -5.9442682452        1.9250119850       -0.2361151787
 H         -5.6942074969        2.6964369777       -0.9673921794
 H         -7.0327973007        1.9009062425       -0.1490420502
 C         -5.3805762545        2.3177421403        1.1284877161
 H         -5.8386903148        1.6946939380        1.8998414600
 H         -5.6820648288        3.3493475621        1.3250457943
 C         -3.8593749490        2.2170487100        1.2669694794
 H         -3.3688761979        2.5673986782        0.3610958706
 H         -3.5576585905        2.8872013937        2.0747770573
 C         -3.3611512547        0.8107023401        1.6273191438
 H         -2.6423575811        0.8782976942        2.4500956148
 H         -4.1920397174        0.2102103487        2.0115580236
 H         -5.4356895582       -0.1588718280        0.0383060332
 H         -6.1931760576        0.2195542983       -1.4990528812
 H         -3.8320955748        1.6888275854       -1.6418961438
 H         -4.1432191136        0.1593049623       -2.4356373441
 O         -2.2371474857       -0.7747724757       -1.6260042395
 C         -1.1969095163       -1.5988361164       -1.2323922044
 O         -0.6424255313       -2.2016577500       -2.1690839476
 H          1.4064584164       -0.5408902354        1.6711024457
 C          2.0084661075       -0.9851859223        0.8885331611
 C          1.5267163492       -2.1097189941        0.2278227793
 C          2.2962379684       -2.6652228871       -0.7851895977
 C          3.5171860699       -2.1054314694       -1.1239779810
 C          3.9967716538       -0.9903616502       -0.4605313880
 C          3.2310954704       -0.4273712547        0.5525333176
 N          3.7032635346        0.7299661410        1.2169270361
 S          3.6913315003        2.1211938730        0.2845324314
 O          4.6090948656        1.9512088675       -0.8116511497
 O          3.9694142128        3.2094125273        1.1930221533
 C          2.0191571349        2.2416788079       -0.3246548001
 C          1.1142609276        3.0293824223        0.3580205941
 C         -0.1973696021        3.0795316277       -0.0839206016
 C         -0.5796596484        2.3318320645       -1.1863816242
 C          0.3351944034        1.5304890939       -1.8506040637
 C          1.6504236977        1.4838432947       -1.4183723382
 H          2.3890478270        0.8783950823       -1.9180524601
 H          0.0267189933        0.9326805644       -2.6942011443
 H         -1.5980415556        2.3707021222       -1.5378451384
 H         -0.9160988930        3.6952092649        0.4326833033
 H          1.4563478382        3.5967361809        1.2088243017
 H          3.2040380645        0.9148211762        2.0767433327
 H          4.9370962606       -0.5339810469       -0.7237657993
 H          4.1037830073       -2.5451748651       -1.9163524010
 H          1.9329489416       -3.5267592362       -1.3202462307
 C          0.1679652632       -2.6250373990        0.6285274706
 H          0.1061114806       -2.5758451107        1.7248003124
 C         -0.1055375123       -4.0475910382        0.1910066877
 C          0.5767146524       -5.1771516001        0.9011037259
 C         -0.8919442485       -4.9497344536        1.0923643673
 H         -1.5853636326       -5.6465779460        0.6459566125
 H         -1.2280040124       -4.5456035224        2.0362349457
 H          1.2394438676       -4.9256355064        1.7153398295
 H          0.8935388673       -6.0330173848        0.3251188026
 H         -0.2744124033       -4.1441236311       -0.8742603622
 O         -1.2024340051       -0.7771064372        2.2832728285
