  62
        -98.94069265
 C         -2.0652452185       -0.9624754844        0.2914048250
 C         -1.9430719246        0.0317897295       -0.7111454563
 C         -2.1880072873        1.4133813993       -0.2728250243
 C         -2.4748244712        1.6759465055        1.0135233327
 C         -2.7170094880        3.0353605955        1.6120665721
 C         -4.1493179131        3.5558054248        1.4270280861
 C         -4.5052743815        3.9981987819        0.0070504845
 H         -5.4503885160        4.5411872952        0.0688246489
 H         -3.7500878912        4.6969613648       -0.3539200937
 C         -4.6632626617        2.8463208898       -0.9952620546
 H         -4.7868233908        1.9060439455       -0.4532275420
 H         -5.5694572311        2.9985184118       -1.5856538467
 C         -3.5018095086        2.6981648417       -1.9784019211
 H         -3.4467456822        3.5813066225       -2.6187928044
 H         -3.6972919015        1.8313319664       -2.6145465439
 C         -2.1360776551        2.4942036361       -1.3101348567
 H         -1.4150361934        2.1847390489       -2.0717073787
 H         -1.7883136755        3.4274728306       -0.8665891533
 H         -4.8458356006        2.7798605512        1.7524255933
 H         -4.2712183441        4.4132791765        2.0927621796
 H         -2.5187048767        2.9409930163        2.6819821402
 H         -2.0083616457        3.7495328676        1.1910265879
 O         -2.5656112636        0.6968391378        1.9527936381
 C         -2.3604289809       -0.6291832205        1.6160039768
 O         -2.4789628079       -1.4203840614        2.5753814293
 H          0.3754589780       -0.9983423370       -0.7412233821
 C          0.6433864445       -1.8972514565       -0.2078441690
 C         -0.3386215991       -2.7587071873        0.2565699233
 C          0.0509257127       -3.9158216708        0.9220713353
 C          1.3900407572       -4.1924990459        1.1297672503
 C          2.3647973119       -3.3090111030        0.7025273661
 C          1.9853567377       -2.1520511069        0.0319962375
 N          2.9400314577       -1.2245622103       -0.4154710766
 S          2.5473753017        0.4166584755       -0.2806298614
 O          1.7957749109        0.6481942215        0.9328160961
 O          1.9434274229        0.8566590875       -1.5121842942
 C          4.1807559251        1.1225789070       -0.1400346874
 C          4.9127375252        1.3417177385       -1.2919836929
 C          6.1956280293        1.8545626356       -1.1831596374
 C          6.7228935724        2.1372665885        0.0682723921
 C          5.9759889206        1.9136679523        1.2151704113
 C          4.6927001884        1.3994193362        1.1134428430
 H          4.0711876940        1.2160970538        1.9754381230
 H          6.3866803774        2.1373337523        2.1865305534
 H          7.7211918029        2.5369747660        0.1504382187
 H          6.7779333213        2.0321842632       -2.0727995988
 H          4.4562090330        1.1153375817       -2.2414345019
 H          3.8693639126       -1.4147535974       -0.0649362928
 H          3.4091362665       -3.5095145127        0.8875881097
 H          1.6776274681       -5.0939100708        1.6491434095
 H         -0.7054595253       -4.5899724558        1.2952068707
 C         -1.8027948823       -2.4403441876        0.0540334934
 H         -2.3660010782       -2.9751586950        0.8325671218
 C         -2.2641131021       -2.9446523052       -1.2996469444
 C         -2.6539130841       -4.3827265697       -1.4546257760
 C         -3.7026051761       -3.3129008847       -1.4966785430
 H         -4.1679052557       -3.0752305128       -2.4412178574
 H         -4.3629038379       -3.2120024830       -0.6472785473
 H         -2.3965418943       -4.8869079078       -2.3732415852
 H         -2.6127883589       -5.0131167680       -0.5795837256
 H         -1.7555819133       -2.4662559058       -2.1264204233
 O         -1.6468281758       -0.1925168207       -1.9149511111
