  62
        -98.94432846
 C         -2.6273892797       -1.3194113952        0.1149049593
 C         -2.6035482614       -0.2890059655       -0.8558295745
 C         -3.6906427270        0.6981625497       -0.7682788759
 C         -4.6259703200        0.5707184865        0.1902209375
 C         -5.7593201722        1.5273404463        0.4191338229
 C         -5.3691998680        2.6216693955        1.4222806206
 C         -4.0314865291        3.2940522510        1.1130867444
 H         -3.2268250716        2.5646167722        1.2333581056
 H         -3.8750866252        4.0697441902        1.8658126466
 C         -3.9426697815        3.9166472088       -0.2872345519
 H         -3.4910839252        4.9072686475       -0.2019822413
 H         -4.9441528338        4.0510391449       -0.6977311796
 C         -3.0905004396        3.1249939313       -1.2812877714
 H         -2.1144069161        2.9078779963       -0.8381726023
 H         -2.9158433849        3.7562960197       -2.1569505684
 C         -3.6984252060        1.8082429756       -1.7813000693
 H         -3.0848505361        1.4567206782       -2.6161416515
 H         -4.7104173443        1.9874065839       -2.1504395511
 H         -5.3047458907        2.1735154844        2.4163652431
 H         -6.1604800556        3.3732155843        1.4384903025
 H         -6.0470031242        1.9752375897       -0.5299334567
 H         -6.6061976204        0.9665588065        0.8181142652
 O         -4.6177346636       -0.4346714772        1.1016955556
 C         -3.6161474467       -1.3893756488        1.0991412329
 O         -3.7161441879       -2.2404386672        2.0051343803
 H          0.5330706406       -1.6483656976       -1.4878415119
 C          0.7114348530       -1.4145954626       -0.4505318729
 C         -0.2378784067       -1.7412943366        0.5034868697
 C          0.0044632536       -1.3975032865        1.8310910924
 C          1.1720869185       -0.7521696468        2.1902884896
 C          2.1194866492       -0.4275952021        1.2338633904
 C          1.8776474403       -0.7474267425       -0.0945524413
 N          2.8274518021       -0.4243988320       -1.0758757053
 S          3.6073844463        1.0576289111       -1.0151491986
 O          2.7871606576        2.0803419858       -0.4084286016
 O          4.0464731643        1.3058316638       -2.3712063130
 C          5.0351562430        0.7327321322        0.0004383833
 C          5.8172037770       -0.3637013682       -0.3062748990
 C          6.9379767093       -0.6236954714        0.4658437200
 C          7.2589902934        0.2140802534        1.5235559949
 C          6.4665353889        1.3132856275        1.8161592395
 C          5.3430472749        1.5780801221        1.0482180221
 H          4.6942445041        2.4173121552        1.2434065114
 H          6.7176282255        1.9641108160        2.6382931552
 H          8.1316220081        0.0090844264        2.1234120056
 H          7.5562270471       -1.4779331195        0.2414203232
 H          5.5351420380       -0.9891952346       -1.1365287972
 H          2.5288404639       -0.6400371277       -2.0160381177
 H          3.0267189982        0.0863494994        1.5061179687
 H          1.3484269401       -0.4961605987        3.2240804829
 H         -0.7438199497       -1.6357739842        2.5747973573
 C         -1.5513137953       -2.3937051264        0.1475842476
 H         -1.8274891201       -3.0689338122        0.9683975642
 C         -1.5177050228       -3.1865367149       -1.1421314023
 C         -0.8005398870       -4.5016544351       -1.1765014547
 C         -2.2973829515       -4.4621549987       -1.2341599502
 H         -2.7853775424       -4.7002876656       -2.1674602130
 H         -2.8529632432       -4.7713019086       -0.3608095482
 H         -0.3377536120       -4.8386189183       -0.2613720592
 H         -0.2590742405       -4.7721087086       -2.0701237638
 H         -1.4852275743       -2.5646021804       -2.0282148747
 O         -1.7316778740       -0.1938213654       -1.7602067485
