  62
        -98.93911864
 C          2.1954996821        1.2184077234        0.2230303256
 C          1.8845179169        0.2328529871       -0.7437845270
 C          2.7139750364       -0.9869755424       -0.7186284605
 C          3.6951613169       -1.1027929971        0.1925856638
 C          4.6995180943       -2.2161818749        0.3612448932
 C          4.1982831610       -3.6593527699        0.2218623224
 C          2.7691958876       -3.8998653324        0.7295576864
 H          2.7723052614       -4.7524334743        1.4113682544
 H          2.4232293395       -3.0334229367        1.2966924927
 C          1.7782252769       -4.2030075199       -0.3967308393
 H          2.2458670259       -4.8984404156       -1.0968958879
 H          0.9054954635       -4.7049873135        0.0289635413
 C          1.2675880578       -2.9848574427       -1.1645928013
 H          0.6168637501       -2.3929382760       -0.5153196790
 H          0.6517414763       -3.3452364076       -1.9918399276
 C          2.3504489220       -2.0454279800       -1.7207186758
 H          3.2223659712       -2.6030547723       -2.0531429154
 H          1.9293379184       -1.5140371812       -2.5783033416
 H          4.2622567697       -3.9702844609       -0.8197992677
 H          4.8934114683       -4.2887893752        0.7801060505
 H          5.5104018006       -2.0493759515       -0.3540209748
 H          5.1188641668       -2.0703961841        1.3598881658
 O          3.9431846740       -0.1347846128        1.1211415564
 C          3.2089894279        1.0386343988        1.1619414692
 O          3.5454743239        1.8254036781        2.0710192834
 O          0.9686312587        0.3615039273       -1.5945609463
 C          1.4353855551        2.5307839902        0.2476197629
 C         -0.0545645267        2.3181489828        0.3681450140
 C         -0.9779336951        3.1546013055       -0.2482553788
 C         -2.3366230048        2.9443876825       -0.0885326389
 C         -2.8065517621        1.8917080593        0.6743457514
 C         -1.8922582430        1.0420401127        1.2843426772
 C         -0.5314146561        1.2688686853        1.1423391446
 H          0.1747684928        0.6080072522        1.6309181489
 N         -2.3590561186       -0.0545935031        2.0272136988
 S         -3.6347194530       -0.9398745940        1.3992028348
 O         -4.8807231090       -0.3365015452        1.8052189735
 O         -3.4179729121       -2.2929607386        1.8644548810
 C         -3.4857265712       -0.8537879071       -0.3775642638
 C         -2.2546786263       -1.0899533943       -0.9542702558
 C         -2.1256392498       -0.9998410858       -2.3297539349
 C         -3.2324492378       -0.6910941119       -3.1051756169
 C         -4.4671592767       -0.4711952230       -2.5139379594
 C         -4.5970376324       -0.5459100045       -1.1364233842
 H         -5.5330087881       -0.3629970531       -0.6337739234
 H         -5.3259639418       -0.2322082114       -3.1203460320
 H         -3.1287883418       -0.6176524635       -4.1762402445
 H         -1.1544120884       -1.1444376781       -2.7745218661
 H         -1.4029989069       -1.3214692799       -0.3352288826
 H         -1.6296990938       -0.6601056284        2.3733021094
 H         -3.8612621696        1.7132959582        0.8093207140
 H         -3.0401391857        3.6063713116       -0.5693136963
 H         -0.6318570683        3.9747309450       -0.8552385745
 H          1.7743718591        3.0592061616        1.1516786304
 C          1.8160581617        3.3566293944       -0.9665980331
 C          1.9042915475        4.8497918758       -0.8772599999
 C          3.1540436310        4.0306078642       -0.9866913665
 H          3.7090870600        4.0515936611       -1.9125331605
 H          3.7750267758        3.9212763391       -0.1089510046
 H          1.6035209989        5.4367324439       -1.7320948143
 H          1.6852577543        5.3096647625        0.0746928795
 H          1.4631669385        2.9174618744       -1.8926553728
