  62
        -98.94133332
 C         -2.4547325778       -1.2777045703        0.0742468090
 C         -3.0161934974       -0.4606278463        1.0906251477
 C         -3.7101749481        0.7513892709        0.6461227529
 C         -3.7881484997        1.0280032444       -0.6676652856
 C         -4.4747770761        2.2155428004       -1.2853558318
 C         -3.6143996406        3.4863590778       -1.3121825728
 C         -3.4196460474        4.1687473248        0.0424228092
 H         -2.9964419407        5.1555598888       -0.1552992555
 H         -4.3904738378        4.3184259056        0.5160383847
 C         -2.4861191562        3.4177757667        1.0024485233
 H         -1.8848895373        2.6967895563        0.4419597901
 H         -1.7853074152        4.1236433183        1.4543770114
 C         -3.1985428534        2.6934315568        2.1451520435
 H         -3.6794249498        3.4253574509        2.7979964917
 H         -2.4456243038        2.1600964557        2.7309976112
 C         -4.2542652428        1.6769754822        1.6918005229
 H         -4.5385747280        1.0707767187        2.5553363635
 H         -5.1382664565        2.1935747626        1.3186716799
 H         -2.6380075893        3.2402299681       -1.7375209830
 H         -4.1013286036        4.1953145165       -1.9859921708
 H         -4.7112760516        1.9377795797       -2.3147926219
 H         -5.4065789363        2.4166849150       -0.7559632658
 O         -3.2481927743        0.2171248129       -1.6139365337
 C         -2.5465250403       -0.9337833345       -1.2742217687
 O         -2.0816315636       -1.5374416269       -2.2613546366
 O         -2.9480842546       -0.7429844379        2.3162267741
 C         -1.7099433472       -2.5187834277        0.5391657479
 C         -0.2478943969       -2.1917400588        0.7025306579
 C          0.3996821574       -2.3458036430        1.9218571433
 C          1.7286689846       -1.9838820235        2.0643262893
 C          2.4350216941       -1.4570810816        0.9975216121
 C          1.7945609845       -1.2979181576       -0.2244035556
 C          0.4683913242       -1.6699966167       -0.3670923507
 H         -0.0251498157       -1.5372414656       -1.3193343721
 N          2.5012107901       -0.7273130906       -1.3118511009
 S          2.7426249212        0.9341238284       -1.1439276253
 O          1.6529638029        1.5529292111       -0.4209800354
 O          2.9899918722        1.4306165757       -2.4801825375
 C          4.2433662451        1.0290128088       -0.1924720360
 C          4.2224608407        1.5732489483        1.0763544802
 C          5.4026199070        1.6225163816        1.8023444689
 C          6.5744562924        1.1287950740        1.2495201187
 C          6.5783826395        0.5869391725       -0.0275492782
 C          5.4026838008        0.5354606561       -0.7590283011
 H          5.3591792514        0.1274124334       -1.7550094409
 H          7.4916341706        0.2043003616       -0.4537841237
 H          7.4903382146        1.1665495588        1.8178373018
 H          5.4013824875        2.0431035328        2.7950747492
 H          3.2854894010        1.9379294217        1.4660078645
 H          2.0316279854       -0.8889477387       -2.1935970014
 H          3.4684847070       -1.1696147390        1.1022756802
 H          2.2181068813       -2.1079744350        3.0180392468
 H         -0.1523247258       -2.7325577941        2.7659043109
 H         -2.1173770802       -2.7263380676        1.5410029004
 C         -1.9716750066       -3.7436234256       -0.3262573226
 C         -0.9094570568       -4.4512978057       -1.1090296408
 C         -1.4768596452       -5.0874515659        0.1218136297
 H         -2.1269842063       -5.9422360772        0.0145716404
 H         -0.8506844474       -5.1135046245        1.0009593202
 H         -1.1839071775       -4.8465440535       -2.0753282171
 H          0.0996697999       -4.0725115104       -1.0668564978
 H         -2.9568200596       -3.7153888485       -0.7802554366
