  62
        -98.94532838
 C          1.5474629028        1.0790320729        0.2494094759
 C          2.8750941356        1.2053313400        0.7303165322
 C          3.9368869926        0.7743308990       -0.1843584670
 C          3.6155940157        0.2988155329       -1.4011105773
 C          4.5846698130       -0.1682628474       -2.4531418013
 C          5.0408956295       -1.6231019560       -2.2772132146
 C          6.0077342945       -1.8657501254       -1.1174819660
 H          6.8421272919       -1.1674657225       -1.1899320037
 H          6.4126662759       -2.8718387221       -1.2437172679
 C          5.3670753256       -1.7631080018        0.2738559159
 H          5.6890927421       -2.6087266847        0.8859277559
 H          4.2803693669       -1.8328863933        0.1810722630
 C          5.7187996944       -0.4883937297        1.0411897826
 H          6.7892747932       -0.4748596969        1.2576052647
 H          5.1826742599       -0.5037869911        1.9934610693
 C          5.3509892343        0.8101734788        0.3114467343
 H          6.0398757391        0.9859764626       -0.5143198828
 H          5.4341171714        1.6372296565        1.0206958955
 H          5.5357062647       -1.9238599200       -3.2036716036
 H          4.1569021183       -2.2535759398       -2.1536328931
 H          5.4550939467        0.4882523659       -2.4679625553
 H          4.0677862916       -0.0836600210       -3.4114790000
 O          2.3306325912        0.2053620848       -1.8325648944
 C          1.2650438679        0.5658150469       -1.0170749620
 O          0.1500904931        0.4002544150       -1.5458877683
 O          3.1588561310        1.6604223039        1.8705546012
 C          0.4130727732        1.4647583463        1.1857744440
 C         -0.2307287134        0.1947240036        1.6872157643
 C          0.4560400009       -0.5887208218        2.6123170998
 C         -0.0865381132       -1.7721358885        3.0733852500
 C         -1.3176913422       -2.2063037098        2.6109464902
 C         -2.0073902385       -1.4368651343        1.6832168008
 C         -1.4678218323       -0.2372909990        1.2379226238
 H         -2.0152598166        0.3510836735        0.5239895202
 N         -3.2675129940       -1.8338700407        1.2020176414
 S         -3.5097043355       -1.8678599628       -0.4634459464
 O         -4.6524018018       -2.7435646350       -0.6326878776
 O         -2.3076602203       -2.2613619487       -1.1595087697
 C         -4.0011349460       -0.2093862886       -0.8803413662
 C         -3.1992902488        0.5726337102       -1.6880086768
 C         -3.6142461728        1.8621122204       -1.9856961402
 C         -4.8116872838        2.3413098722       -1.4771517558
 C         -5.6057266178        1.5393086820       -0.6708169342
 C         -5.1993999734        0.2498271235       -0.3690123886
 H         -5.7872712197       -0.4098179348        0.2471535729
 H         -6.5355506965        1.9161598285       -0.2763972949
 H         -5.1252266959        3.3468157168       -1.7104992265
 H         -2.9920472353        2.4856889092       -2.6084131376
 H         -2.2576717339        0.1791619440       -2.0402181533
 H         -3.6180224195       -2.6845716579        1.6203306077
 H         -1.7398009354       -3.1355054078        2.9637969087
 H          0.4541548266       -2.3674582101        3.7939471156
 H          1.4238728803       -0.2554958093        2.9606758251
 H          0.9016132557        1.9525762159        2.0411835285
 C         -0.5600000228        2.4372548182        0.5556267490
 C         -1.5452705561        3.1588630353        1.4244527674
 C         -0.4027012255        3.9056975991        0.8063580307
 H         -0.6092403976        4.5900572851       -0.0025100759
 H          0.4085281853        4.2200847596        1.4466573029
 H         -2.5401962943        3.3273778989        1.0413518825
 H         -1.5081078953        2.9641172801        2.4855318316
 H         -0.8848745900        2.1371544727       -0.4325560011
