  62
        -98.94652383
 C         -0.6726095590       -1.7919114531        0.6670608336
 C         -1.4373183458       -1.8736492986       -0.5215512005
 C         -2.6690846665       -1.0762927088       -0.5396636419
 C         -3.0027273130       -0.3325083159        0.5305421313
 C         -4.2453028819        0.5049471629        0.6688655712
 C         -4.1344496049        1.9001613099        0.0398623198
 C         -4.1345404240        1.9352006105       -1.4883972873
 H         -4.9899444836        1.3752117206       -1.8674054050
 H         -4.2714831120        2.9768307240       -1.7846117249
 C         -2.8439156314        1.4051597115       -2.1288540091
 H         -2.0488282938        1.3748618147       -1.3795000264
 H         -2.5162044551        2.0903999393       -2.9134827048
 C         -2.9800109695        0.0215903537       -2.7648502463
 H         -1.9998651487       -0.2827371625       -3.1414204029
 H         -3.6663278248        0.0731689504       -3.6132290720
 C         -3.4748841821       -1.0664602895       -1.8031536423
 H         -4.5324903071       -0.9237361863       -1.5828472864
 H         -3.3448138958       -2.0371265813       -2.2879201802
 H         -3.2207462642        2.3693997264        0.4068733386
 H         -4.9848978756        2.4856749501        0.3962352695
 H         -4.4213137254        0.6241943473        1.7399933945
 H         -5.0927077537       -0.0277805027        0.2359539598
 O         -2.2359393333       -0.2774396809        1.6528948942
 C         -1.0466620370       -0.9837934407        1.7398621232
 O         -0.4242918071       -0.8145612239        2.8084682951
 O         -1.1149668087       -2.5764173833       -1.5142248414
 C          0.6472953278       -2.5360562249        0.7623803494
 C          1.5682720992       -2.0210674103       -0.3178456100
 C          2.2224729001       -2.8329800544       -1.2338905862
 C          3.0272273744       -2.2730059624       -2.2115246259
 C          3.2150425678       -0.9050360421       -2.2800662736
 C          2.5757381416       -0.0841660346       -1.3573818922
 C          1.7544098355       -0.6460068171       -0.3953787388
 H          1.2511182836       -0.0047796408        0.3144584815
 N          2.7358256135        1.3101681103       -1.3869571370
 S          2.9344174687        2.1342893848        0.0591706442
 O          3.6564274137        3.3343755830       -0.3103430296
 O          3.5612066838        1.3003324800        1.0575903236
 C          1.2986677054        2.6127252149        0.5714417761
 C          0.8301339457        2.2325761307        1.8127833658
 C         -0.4059106893        2.6957023867        2.2351252270
 C         -1.1442177441        3.5337426986        1.4146039956
 C         -0.6688171526        3.8916795696        0.1608885648
 C          0.5648494350        3.4298182880       -0.2667163708
 H          0.9759569854        3.6987803333       -1.2254370139
 H         -1.2546358951        4.5316985216       -0.4792706906
 H         -2.0923857539        3.9152692291        1.7610115430
 H         -0.7827424745        2.3909479742        3.1984865333
 H          1.4289246551        1.5782850591        2.4275017081
 H          3.3746118045        1.6470071864       -2.0929728069
 H          3.8475664082       -0.4718091299       -3.0401333396
 H          3.5211959483       -2.9130987550       -2.9268924138
 H          2.0945431591       -3.9019677969       -1.1914073478
 H          1.0848490422       -2.2657241936        1.7349661421
 C          0.4277843026       -4.0329495065        0.7231935408
 C          1.4231488975       -4.9543289137        1.3598324062
 C          0.0811804988       -4.7469381398        1.9936367904
 H         -0.6389430987       -5.5503356565        1.9540756761
 H          0.0257131271       -4.1553531915        2.8961677074
 H          1.6241437770       -5.9041604711        0.8877769840
 H          2.2831235501       -4.5080717873        1.8365683631
 H         -0.0669703351       -4.3586852474       -0.1841749193
