  62
        -98.93522189
 C          1.4443612761        1.5104747909        0.0451904872
 C          1.7379878952        0.4891478339        0.9857946324
 C          2.4560789773       -0.6874122927        0.4860265928
 C          2.7581701817       -0.7676803718       -0.8217292000
 C          3.4186665225       -1.9220338213       -1.5286568793
 C          4.8640953875       -2.2519751591       -1.1097695471
 C          4.9777617879       -3.3249908952       -0.0197875387
 H          4.0773271415       -3.9402032476       -0.0397905385
 H          5.8138081097       -3.9842137497       -0.2618435114
 C          5.2127414352       -2.8062592041        1.4017565988
 H          6.2604252611       -2.5154779186        1.5060314131
 H          5.0294635284       -3.6315458536        2.0929381014
 C          4.3604640388       -1.6089367439        1.8223612925
 H          4.4777251739       -1.4690418841        2.8986522187
 H          4.7423257590       -0.7016316200        1.3485799015
 C          2.8625427539       -1.7340488603        1.4827147436
 H          2.6323271025       -2.7293519684        1.1046147484
 H          2.2618079696       -1.5585401949        2.3774717668
 H          5.3737584502       -2.6173735274       -2.0027368651
 H          5.3696870011       -1.3375252858       -0.8007738821
 H          3.4039327640       -1.6574709317       -2.5883195780
 H          2.7891692311       -2.8066876580       -1.4033820401
 O          2.4377800165        0.2185452520       -1.6993676497
 C          1.7470279574        1.3553254540       -1.3072571907
 O          1.4833467313        2.1214895461       -2.2581698198
 O          1.3976439519        0.5598284083        2.1974824414
 C          0.6374527772        2.6835743768        0.5815164280
 C         -0.8195386353        2.2845198976        0.5703009008
 C         -1.6128822968        2.3653189267        1.7077062763
 C         -2.9084913707        1.8769000677        1.7025131223
 C         -3.4214331870        1.2621758486        0.5738434897
 C         -2.6370761815        1.1880846902       -0.5688783129
 C         -1.3633812811        1.7284867002       -0.5791671976
 H         -0.7634421341        1.6555693294       -1.4752219554
 N         -3.1150792840        0.4329666034       -1.6825380865
 S         -2.4349882854       -1.1171351933       -1.6237850843
 O         -0.9874039735       -1.0677798729       -1.6151798544
 O         -3.0248182498       -1.8515379536       -2.7224541262
 C         -3.0324792403       -1.7324100005       -0.0673599347
 C         -2.2302218130       -1.6074264726        1.0499784780
 C         -2.7163884969       -2.0414654277        2.2728901532
 C         -3.9881988933       -2.5881369722        2.3554438051
 C         -4.7796532662       -2.7091992865        1.2228949117
 C         -4.3008764057       -2.2750297891       -0.0029211421
 H         -4.8761514773       -2.3490615529       -0.9109560496
 H         -5.7669154138       -3.1365986022        1.2920204414
 H         -4.3628721587       -2.9219019800        3.3101432303
 H         -2.0988126539       -1.9424108212        3.1511763633
 H         -1.2469260051       -1.1728189075        0.9460978391
 H         -2.8509057060        0.8454430756       -2.5687306701
 H         -4.4090995629        0.8310888888        0.5674210514
 H         -3.5112531769        1.9445243362        2.5945307756
 H         -1.1962229332        2.7861392968        2.6104302920
 H          0.9409942707        2.7994932751        1.6312395985
 C          0.8544106654        4.0014584374       -0.1300539323
 C          0.5436224904        5.2762141422        0.5942568208
 C          1.9669543585        4.9021565875        0.3118962696
 H          2.5103827775        5.4516115988       -0.4417199367
 H          2.5807835828        4.5703100342        1.1364634982
 H          0.1052230073        6.0888453948        0.0360330151
 H          0.1944835980        5.2024816207        1.6127508190
 H          0.6435479855        3.9592703560       -1.1904030423
