  62
        -98.93441429
 C         -2.5830739401       -1.3412679377       -0.2214226777
 C         -2.3570413728       -0.0751286322       -0.8062269592
 C         -3.5051400467        0.8546264010       -0.8429106808
 C         -4.6847913901        0.4504315014       -0.3360820935
 C         -5.9712313822        1.2259007492       -0.2328341411
 C         -5.9502641059        2.2586558207        0.9057091296
 C         -4.6617486188        3.0700068275        1.0142638324
 H         -4.7280197082        3.6795581982        1.9194863194
 H         -3.8176539590        2.3898815043        1.1456474491
 C         -4.3812538395        4.0062865766       -0.1587697063
 H         -5.2076225322        4.7138401207       -0.2573845468
 H         -3.4829569298        4.5771225705        0.0907551137
 C         -4.1539947738        3.3329770025       -1.5137354189
 H         -3.7350187171        4.0883718331       -2.1850018377
 H         -5.0941637808        3.0146924732       -1.9558851643
 C         -3.1620409624        2.1740249715       -1.4918244740
 H         -2.2306555394        2.5074321971       -1.0188814584
 H         -2.8877900484        1.9312204386       -2.5256744593
 H         -6.0857428632        1.7238777638        1.8489698204
 H         -6.7979494589        2.9334291995        0.7756908334
 H         -6.1985676556        1.7000009378       -1.1828785498
 H         -6.7593006339        0.4982881550       -0.0267674485
 O         -4.8541994725       -0.7839443651        0.2195525493
 C         -3.8245443999       -1.6983380840        0.3036004642
 O         -4.1301724153       -2.7755648254        0.8543994941
 O         -1.2461913484        0.2786330940       -1.2842408557
 C         -1.4555313934       -2.3540204090       -0.1177490648
 C         -0.3547137117       -1.7691760867        0.7337323051
 C         -0.6433088582       -1.4500914720        2.0585989297
 C          0.3149780478       -0.8780853252        2.8721731678
 C          1.5829800507       -0.6111151210        2.3842908685
 C          1.8795654769       -0.9212776073        1.0650061027
 C          0.9145058327       -1.5027966923        0.2495857527
 H          1.1570071050       -1.7297477342       -0.7764922421
 N          3.1700916717       -0.6751979934        0.5592497309
 S          3.9219820208        0.7768030323        0.9845761538
 O          4.4573773411        0.6394067622        2.3164652357
 O          3.0251339812        1.8919789350        0.7778987410
 C          5.2544888451        0.8167000418       -0.1980804491
 C          5.0560917554        1.4470291336       -1.4120446175
 C          6.0853295390        1.4522735453       -2.3402792686
 C          7.2872678153        0.8279305492       -2.0416669708
 C          7.4711314524        0.1995501130       -0.8190284241
 C          6.4465154817        0.1913514039        0.1140713340
 H          6.5457932143       -0.2761187438        1.0796609200
 H          8.4079624823       -0.2822641055       -0.5901848255
 H          8.0861929177        0.8342410110       -2.7662100181
 H          5.9458225794        1.9422313599       -3.2905310282
 H          4.1085007485        1.9275758828       -1.5984548124
 H          3.2097759021       -0.8109140619       -0.4422284347
 H          2.3365723006       -0.1538747399        3.0047844152
 H          0.0751730828       -0.6328806567        3.8963042572
 H         -1.6371887525       -1.6498039300        2.4371309648
 H         -1.8748456418       -3.2177848043        0.4171467741
 C         -1.0078379262       -2.8021682177       -1.4924635938
 C         -0.2809676663       -4.1027690495       -1.6522111671
 C         -1.6935737951       -3.9691735274       -2.1341610162
 H         -1.8761373117       -3.9376919679       -3.1978503417
 H         -2.4773378406       -4.4555390023       -1.5718367337
 H          0.5063637874       -4.1685874468       -2.3877484814
 H         -0.1021728550       -4.6853265657       -0.7612324935
 H         -0.7293060288       -1.9748782566       -2.1346109970
