  62
        -98.94391606
 C         -1.8826977303        0.5157334662       -0.8721804104
 C         -2.2242032353       -0.4853531518        0.0686940184
 C         -3.6602458183       -0.7628632252        0.2061983020
 C         -4.5477674317       -0.1004052519       -0.5578926593
 C         -6.0404363578       -0.2907923156       -0.5501818766
 C         -6.7651676105        0.5013673855        0.5465462789
 C         -6.5776506143       -0.0334124565        1.9668089657
 H         -7.3069590241        0.4759556717        2.5998090093
 H         -6.8154627539       -1.0973901887        1.9878262928
 C         -5.1756545881        0.1938248501        2.5493630888
 H         -4.6567005080        0.9567952877        1.9646184296
 H         -5.2622218825        0.5761548010        3.5689782535
 C         -4.3029631774       -1.0600501309        2.6092350326
 H         -4.7457093120       -1.7828438412        3.2983417830
 H         -3.3226174179       -0.7781683838        3.0023827365
 C         -4.0882745860       -1.7458817072        1.2535479890
 H         -3.2873374442       -2.4814366064        1.3641476815
 H         -4.9972950463       -2.2619155219        0.9448051310
 H         -6.4346838889        1.5416093896        0.5023845852
 H         -7.8318757082        0.4810941074        0.3118960741
 H         -6.4024101397        0.0553947486       -1.5206649351
 H         -6.2742221528       -1.3510269538       -0.4498901222
 O         -4.1742505199        0.8353548940       -1.4709162763
 C         -2.8420640570        1.1783620334       -1.6375385601
 O         -2.6422199241        2.0651353318       -2.4923061329
 O         -1.3791702320       -1.1182812468        0.7542051506
 C         -0.4292889661        0.9048723548       -1.0711435316
 C          0.3982825039       -0.3058821717       -1.4261532664
 C         -0.0679046707       -1.1760320559       -2.4084938154
 C          0.6592917964       -2.2948770089       -2.7634349901
 C          1.8696585606       -2.5677312191       -2.1508471911
 C          2.3537861029       -1.6970544554       -1.1820673027
 C          1.6237059289       -0.5683152532       -0.8331077363
 H          2.0107268611        0.0870155108       -0.0712034473
 N          3.6032439667       -1.9238317625       -0.5937369174
 S          4.0057639034       -1.3776743250        0.9300534018
 O          5.2104389554       -2.1131285758        1.2556267782
 O          2.9201583490       -1.5012171599        1.8733550731
 C          4.4300503315        0.3361127505        0.6946637934
 C          5.0752635932        0.7213994042       -0.4637819763
 C          5.4391107392        2.0497609386       -0.6165894401
 C          5.1637346136        2.9642363487        0.3884902809
 C          4.5213525422        2.5604890958        1.5486538727
 C          4.1491530015        1.2342101841        1.7050662815
 H          3.6352200342        0.8798003112        2.5848632935
 H          4.3079823246        3.2722163341        2.3305677030
 H          5.4485623262        3.9973795028        0.2675502176
 H          5.9371690473        2.3677255345       -1.5183049769
 H          5.2749717446       -0.0138678013       -1.2250028166
 H          4.0364493725       -2.8078278102       -0.8139021091
 H          2.4348506747       -3.4469889321       -2.4198591431
 H          0.2792177737       -2.9652728376       -3.5197477769
 H         -1.0177290579       -0.9670645063       -2.8823039833
 H         -0.4152993663        1.5911331627       -1.9310062923
 C          0.0795630835        1.6463527310        0.1480072575
 C          1.1238195524        2.7108601278        0.0011469992
 C         -0.2909440400        3.0878269232        0.3201782275
 H         -0.5206453861        3.4463819660        1.3123686487
 H         -0.8911943049        3.5384667203       -0.4570669716
 H          1.8697469750        2.8116384721        0.7748311869
 H          1.4904921192        2.9160224084       -0.9930846744
 H          0.1007748230        1.0235887635        1.0361202067
