  62
        -98.93805777
 C         -0.7963176380       -1.5779685564       -0.6202577148
 C         -2.0129948288       -1.8876101159        0.0422043599
 C         -3.1034210101       -0.9107925837       -0.0836922511
 C         -2.8961092215        0.2055605699       -0.8053449088
 C         -3.8669852504        1.3430494169       -0.9511000555
 C         -3.8801015041        2.1943068991        0.3343049980
 C         -5.2055286947        2.1693518426        1.0956518161
 H         -5.0313269234        2.6278405650        2.0713870417
 H         -5.9323763666        2.7887102994        0.5659090035
 C         -5.8302808451        0.7863969954        1.3007552513
 H         -6.6017014868        0.8950822533        2.0662113163
 H         -6.3405263323        0.4742663063        0.3882640216
 C         -4.8655982509       -0.3270670851        1.7283728225
 H         -5.3776271835       -0.9578309300        2.4580809164
 H         -3.9911845989        0.0897824222        2.2282760541
 C         -4.4072996955       -1.2505952105        0.5845509080
 H         -4.2587525071       -2.2565244852        0.9883688718
 H         -5.1962961749       -1.3139155102       -0.1703046103
 H         -3.0785176386        1.8393973174        0.9844863216
 H         -3.6533727020        3.2319371338        0.0872098306
 H         -3.5406260009        1.9398216573       -1.8025873882
 H         -4.8603948532        0.9518538610       -1.1606543366
 O         -1.7265388299        0.4599938588       -1.4428519877
 C         -0.6527177772       -0.4176362862       -1.3814558011
 O          0.3314782477       -0.0379559697       -2.0450626833
 O         -2.1801868082       -2.9459402255        0.7071266589
 C          0.3356308637       -2.5766226694       -0.4498960109
 C          1.2697400072       -2.1478969069        0.6573526175
 C          1.5208314753       -2.9818069884        1.7403992845
 C          2.3787785385       -2.5824786058        2.7499065136
 C          2.9976557919       -1.3472162555        2.6984139143
 C          2.7460134213       -0.5009585656        1.6225988671
 C          1.8894832197       -0.9066452808        0.6098730665
 H          1.7108909546       -0.2531026706       -0.2284558282
 N          3.3127015125        0.7762765300        1.5797840709
 S          3.5147699153        1.6381665834        0.1669499237
 O          4.0100830237        0.8069694500       -0.9052161513
 O          4.3864139905        2.7298094623        0.5558442150
 C          1.9130109360        2.3108183183       -0.2154553587
 C          1.6185280616        2.5983736886       -1.5318596913
 C          0.4007491722        3.1851993938       -1.8344752186
 C         -0.4970325776        3.4712217469       -0.8199027793
 C         -0.1870205316        3.1752446902        0.4982210668
 C          1.0307109615        2.5925323223        0.8081155294
 H          1.2981709544        2.3442360408        1.8223024532
 H         -0.8915854231        3.3947123107        1.2849117857
 H         -1.4471457030        3.9219359880       -1.0595907707
 H          0.1535654529        3.4019661344       -2.8613286002
 H          2.3344585982        2.3389048804       -2.2951326026
 H          4.0106020827        0.9832322534        2.2774686044
 H          3.6654849136       -1.0326031188        3.4856245500
 H          2.5678220899       -3.2390615452        3.5855144506
 H          1.0293148050       -3.9419693363        1.7930936779
 H         -0.1496767474       -3.5109849023       -0.1356014122
 C          1.1215487053       -2.8505510849       -1.7167910469
 C          1.8155599703       -4.1696797761       -1.8692512700
 C          0.6060096570       -3.8581152993       -2.6978240678
 H          0.7341911203       -3.6620512153       -3.7516692415
 H         -0.3196883637       -4.3603960939       -2.4565872762
 H          2.7803957660       -4.1887314946       -2.3525434403
 H          1.7096254881       -4.8882364916       -1.0705566395
 H          1.6164219025       -1.9740693764       -2.1153487309
