  62
        -98.94464910
 C         -2.0014988409       -0.7751152291        0.5409477708
 C         -1.9636906905       -0.0687881937       -0.6852484946
 C         -2.0429443013        1.3942434017       -0.5841947511
 C         -2.0864437404        1.9691050608        0.6311428151
 C         -2.1960347088        3.4456573449        0.8785547966
 C         -3.6621738113        3.8892824942        0.9831898575
 C         -4.5450760429        3.3765135639       -0.1543968921
 H         -4.6134235519        2.2883894587       -0.0875814891
 H         -5.5490507309        3.7737925882        0.0091642444
 C         -4.0618797366        3.7678725909       -1.5577429673
 H         -4.9187146211        4.1138974495       -2.1395210308
 H         -3.3587329272        4.5985040747       -1.4888459900
 C         -3.4189870247        2.6262837825       -2.3475633808
 H         -3.3131911703        2.9486378773       -3.3867233546
 H         -4.0809340559        1.7568363099       -2.3395822538
 C         -2.0330262262        2.1785673238       -1.8656319105
 H         -1.6146284710        1.5054746759       -2.6198556749
 H         -1.3711196277        3.0429677550       -1.7792412647
 H         -4.0683031034        3.5177350680        1.9267558831
 H         -3.6908845555        4.9801285726        1.0061894990
 H         -1.6860304445        3.6730202421        1.8164877195
 H         -1.6982471063        3.9780354319        0.0701646063
 O         -2.0835547716        1.2589858555        1.7895603176
 C         -2.0369997404       -0.1252100914        1.7727725286
 O         -2.0375656345       -0.6549868985        2.9045219516
 H          0.4938306494       -1.1802722410        0.9433458255
 C          0.5534509410       -1.9658971330        0.2026492665
 C         -0.5902855721       -2.6782894468       -0.1353807322
 C         -0.4847030800       -3.6965647857       -1.0734288961
 C          0.7308896440       -3.9627053699       -1.6805727664
 C          1.8550332375       -3.2171702402       -1.3781985246
 C          1.7632430995       -2.2096167765       -0.4236319085
 N          2.8870448899       -1.4427615879       -0.0681860289
 S          2.6430305349        0.1686205276        0.3758313185
 O          2.2925506155        0.2152737756        1.7746365054
 O          1.7316640022        0.8171966035       -0.5395189724
 C          4.2956146085        0.8037286919        0.1565954422
 C          5.2272196737        0.5885270657        1.1547320183
 C          6.5216978101        1.0490938856        0.9734828537
 C          6.8614917838        1.7123625623       -0.1964655367
 C          5.9154590684        1.9226346776       -1.1884017496
 C          4.6192023765        1.4633151871       -1.0140103626
 H          3.8473704173        1.6095920177       -1.7527744993
 H          6.1811389237        2.4417170074       -2.0951559778
 H          7.8692669190        2.0706396372       -0.3346399438
 H          7.2587054973        0.8900832738        1.7439326187
 H          4.9122403575        0.0770810343        2.0493599165
 H          3.6486729106       -1.5344662772       -0.7268955272
 H          2.7948725634       -3.4090650832       -1.8730110218
 H          0.7985106505       -4.7512134793       -2.4147212098
 H         -1.3562911955       -4.2712974608       -1.3407528970
 C         -1.8837743725       -2.2890887345        0.5400244896
 H         -1.8249403537       -2.5915424743        1.5964659753
 C         -3.1098792180       -2.9206583005       -0.0850677748
 C         -3.5633690445       -4.2816598384        0.3478462392
 C         -4.3478992614       -3.0686632004        0.7455818010
 H         -5.3059666845       -2.8950042385        0.2792271122
 H         -4.2954121639       -2.7361043737        1.7724001716
 H         -2.9853153067       -4.7817799947        1.1101433605
 H         -3.9878728248       -4.9431680408       -0.3921160707
 H         -3.2339522108       -2.6424747965       -1.1253121468
 O         -1.8743905716       -0.6326945956       -1.8078391357
