  62
        -98.93779657
 C         -1.4411452953       -1.5678871326       -0.3435734278
 C         -1.5393335418       -0.2107256609       -0.7322616546
 C         -2.6362954414        0.5774096100       -0.1285634092
 C         -3.4987376553       -0.0308812548        0.7044477930
 C         -4.7063420705        0.5576601374        1.3833179506
 C         -5.8916273522        0.7557120809        0.4221948831
 C         -5.5252532099        1.3047487633       -0.9546612274
 H         -4.7830311107        0.6500807133       -1.4149454920
 H         -6.4231560632        1.2663515833       -1.5770683861
 C         -5.0102504478        2.7419067529       -0.9675955890
 H         -5.7850111411        3.4030923577       -0.5725811091
 H         -4.8378660117        3.0177192868       -2.0110404486
 C         -3.7188886410        2.9946521873       -0.1878166253
 H         -3.9067225749        3.0100611591        0.8825093195
 H         -3.3664902910        3.9961097613       -0.4529518959
 C         -2.5758011526        2.0367257940       -0.5091861572
 H         -2.3829249445        2.0600373432       -1.5878107472
 H         -1.6597203917        2.4175506727       -0.0368648462
 H         -6.6163252850        1.4172768678        0.8995328383
 H         -6.3681597962       -0.2163465075        0.2740205857
 H         -4.4365417461        1.4904811455        1.8705409154
 H         -5.0039908796       -0.1480646635        2.1622042279
 O         -3.3983045870       -1.3568516656        1.0109380756
 C         -2.3623763352       -2.1359277868        0.5382816174
 O         -2.3745744075       -3.3138447591        0.9534854381
 O         -0.7629489077        0.3465500055       -1.5500231884
 C         -0.3124564330       -2.4859417279       -0.7811896158
 C          0.8575357848       -2.3800029136        0.1674865961
 C          1.5799787417       -3.5081539993        0.5399226362
 C          2.6494154294       -3.3998548244        1.4113696940
 C          3.0125608752       -2.1721215290        1.9340982884
 C          2.2850274912       -1.0387148228        1.5829096164
 C          1.2259005971       -1.1506264593        0.6941153594
 H          0.6654732152       -0.2681431265        0.4383050031
 N          2.5943341014        0.2008381287        2.1469651034
 S          2.1751159361        1.6833866369        1.5094988857
 O          2.8415457769        2.6222342582        2.3883341620
 O          0.7433273730        1.8142243853        1.4176570399
 C          2.9547533033        1.7519381906       -0.0925989165
 C          2.2288632864        1.5915248300       -1.2541579725
 C          2.8994966956        1.6496492450       -2.4678453510
 C          4.2686186203        1.8565841559       -2.5007464602
 C          4.9831412458        2.0145379114       -1.3220692108
 C          4.3215414039        1.9636775475       -0.1074524508
 H          4.8339987127        2.1042731741        0.8303352527
 H          6.0483464064        2.1786942396       -1.3478939451
 H          4.7807912362        1.8974196463       -3.4491282618
 H          2.3380710137        1.5285424234       -3.3802358706
 H          1.1647803727        1.4156853822       -1.2150695167
 H          3.4324666035        0.2379353956        2.7053125563
 H          3.8377316868       -2.0901883346        2.6245814245
 H          3.2029485820       -4.2826296008        1.6931115505
 H          1.2851852765       -4.4757417051        0.1611796799
 H         -0.7160882457       -3.5072776513       -0.6885615427
 C          0.0946499362       -2.2881265212       -2.2354708257
 C          1.3810543277       -1.6439315347       -2.6455408512
 C          1.1913521097       -3.1166586706       -2.8369967406
 H          1.0569472873       -3.4960836846       -3.8386174391
 H          1.7359994211       -3.7792766394       -2.1825302441
 H          1.3623134261       -0.9991357832       -3.5099197446
 H          2.0507080254       -1.3081637111       -1.8687376777
 H         -0.7648447796       -2.0899497070       -2.8673374385
