  62
        -98.94335556
 C         -0.7572820291       -1.8202611304        0.0834304089
 C         -1.4999902691       -1.1247115709        1.0634032392
 C         -2.7446924993       -0.4763034410        0.6155940296
 C         -3.0977239394       -0.5519786007       -0.6811392204
 C         -4.3064422496       -0.0105375508       -1.4152104501
 C         -5.1949919598        1.0554790489       -0.7798385597
 C         -4.5248310200        2.4148935690       -0.5872243294
 H         -4.3209094803        2.8475896293       -1.5700877293
 H         -5.2309710401        3.0716739887       -0.0735054591
 C         -3.2099196199        2.4000052190        0.1890554604
 H         -2.4449092699        1.8740776194       -0.3883021798
 H         -2.8669176301        3.4348955691        0.2828430207
 C         -3.2936600996        1.8061870286        1.5945123703
 H         -4.0964947096        2.2966636083        2.1487542205
 H         -2.3526498496        2.0340724587        2.1021098602
 C         -3.5077335193        0.2829435386        1.6635456399
 H         -4.5649149992        0.0309035183        1.6166736100
 H         -3.1299522291       -0.0674358116        2.6286743197
 H         -5.6028172796        0.6977820185        0.1610245503
 H         -6.0402037899        1.1990055189       -1.4587141095
 H         -3.9234684698        0.3673620796       -2.3689326400
 H         -4.9265643595       -0.8819799408       -1.6544189702
 O         -2.3549854794       -1.2484293203       -1.5904610407
 C         -1.1729996292       -1.8836329001       -1.2455861710
 O         -0.6046106292       -2.4598798998       -2.1927740013
 O         -1.1418056889       -1.0471619311        2.2699968092
 C          0.5575864711       -2.4620142803        0.4753316186
 C          1.7220050909       -1.8488784498       -0.2679246214
 C          2.9233839110       -2.5255296795       -0.4518390018
 C          3.9784153208       -1.9148391991       -1.1065312618
 C          3.8713869605       -0.6181916490       -1.5774482714
 C          2.6754431404        0.0669022707       -1.3989572810
 C          1.6203241906       -0.5519402397       -0.7474528411
 H          0.6894589205       -0.0183585199       -0.6463132808
 N          2.5098170800        1.3763128008       -1.8675368006
 S          1.4490936499        2.4244026104       -1.1196110502
 O          0.0851030299        2.0811543802       -1.4362196001
 O          1.8857048596        3.7342491806       -1.5558991499
 C          1.7634997602        2.2315500100        0.6250619297
 C          0.7861516904        1.7215686695        1.4530314997
 C          1.0752591206        1.5179219692        2.7925453896
 C          2.3326765606        1.8362473393        3.2806532495
 C          3.3011406804        2.3654728098        2.4402723695
 C          3.0187317902        2.5612150901        1.0985515696
 H          3.7457073900        2.9717175704        0.4168915896
 H          4.2760887704        2.6170253499        2.8255702695
 H          2.5573019908        1.6704020191        4.3224760194
 H          0.3194176008        1.0875283089        3.4305909096
 H         -0.1808321896        1.4759683394        1.0428018398
 H          3.3416991999        1.8315480911       -2.2103074206
 H          4.6955708003       -0.1448100387       -2.0881095514
 H          4.9020044209       -2.4549424389       -1.2486087520
 H          3.0285526813       -3.5347593496       -0.0883246421
 H          0.6859519112       -2.2331601805        1.5450135686
 C          0.4902766614       -3.9681116102        0.3081310981
 C          1.1771560918       -4.8780172604        1.2813524778
 C         -0.3167375283       -4.7670347607        1.2863613580
 H         -0.9020984281       -5.5958690007        0.9176447379
 H         -0.7871645183       -4.2265188110        2.0948510182
 H          1.6197866419       -5.7896265902        0.9088658875
 H          1.7161583718       -4.4242771505        2.0993503779
 H          0.4504759814       -4.2663757799       -0.7335516519
