  62
        -98.93583526
 C         -2.4954106933       -1.0134862600        0.5819566834
 C         -2.6197114277        0.2756367864        1.1617021790
 C         -3.9087041641        0.9514760979        0.9818310114
 C         -4.9003694347        0.3253910642        0.3229503658
 C         -6.2855580032        0.8625066113        0.0839471564
 C         -6.3962055854        1.7867207039       -1.1362129873
 C         -5.7636983193        3.1682237626       -0.9644525536
 H         -6.1412964770        3.6285991153       -0.0510168086
 H         -6.1007150499        3.7816740788       -1.8023089716
 C         -4.2285936954        3.1634045517       -0.9434170282
 H         -3.8520022074        3.9578789266       -1.5916384280
 H         -3.8599405876        2.2185868404       -1.3497882580
 C         -3.6119562644        3.3782733024        0.4390900533
 H         -3.8620972458        4.3780089387        0.8013855447
 H         -2.5243282113        3.3173341297        0.3431649134
 C         -4.0509885631        2.3531202058        1.4929857208
 H         -5.0794300862        2.5444478073        1.7991254137
 H         -3.3996384241        2.4565566243        2.3644772005
 H         -7.4595603622        1.9212517874       -1.3470426677
 H         -5.9470750458        1.2848949571       -1.9962002407
 H         -6.6316785532        1.3892067044        0.9736890915
 H         -6.9294853031       -0.0039524754       -0.0810296142
 O         -4.7531178980       -0.9191112046       -0.1984054778
 C         -3.5480739648       -1.6104522244       -0.1142467981
 O         -3.5721280392       -2.7147225455       -0.6858335082
 O         -1.6939713916        0.8312359863        1.8145944481
 C         -1.1575678797       -1.7082819894        0.7559079757
 C         -0.2213553349       -1.3972006223       -0.3847652315
 C         -0.6386902971       -1.4860794116       -1.7091495310
 C          0.2392670137       -1.2020441981       -2.7390071330
 C          1.5435842925       -0.8267917315       -2.4703980164
 C          1.9744349292       -0.7440833799       -1.1509223697
 C          1.0886928143       -1.0252131024       -0.1192931824
 H          1.4268904572       -0.9327155468        0.9017534025
 N          3.3103122445       -0.4203092072       -0.8613059466
 S          3.6790110389        0.4746292069        0.5220548902
 O          3.5766295391       -0.3865497186        1.6728816480
 O          2.9001430940        1.6921967637        0.5516186120
 C          5.3937260438        0.8406189094        0.1995721385
 C          5.7501335917        2.0912174866       -0.2678016249
 C          7.0849190068        2.3506203126       -0.5375430037
 C          8.0344522030        1.3598015406       -0.3386556423
 C          7.6614027751        0.1093852173        0.1320513786
 C          6.3290912954       -0.1561729134        0.4048750867
 H          5.9937705232       -1.1086042525        0.7807767243
 H          8.4028785405       -0.6575426392        0.2876370082
 H          9.0723169433        1.5642087040       -0.5491833733
 H          7.3783133786        3.3227403155       -0.8997730322
 H          4.9780867597        2.8324003009       -0.3991239388
 H          3.8043770255       -0.0584300236       -1.6661346011
 H          2.2254636553       -0.6038030494       -3.2768883645
 H         -0.0972668427       -1.2705531623       -3.7626511064
 H         -1.6539944550       -1.7864282107       -1.9203170333
 H         -0.7222340382       -1.2553723389        1.6622607943
 C         -1.2824950613       -3.2040237088        1.0141392003
 C         -0.8653556389       -4.2492741838        0.0280999917
 C         -0.0524417563       -4.0253302088        1.2655056373
 H         -0.0796359187       -4.7688785979        2.0476362256
 H          0.9027838368       -3.5327107060        1.1573326210
 H         -1.4738121081       -5.1375036431       -0.0438126688
 H         -0.4584228141       -3.9241040032       -0.9161970233
 H         -2.1535484203       -3.4359018440        1.6188018240
