  62
        -98.94762461
 C         -1.8305487571       -1.3410407251       -0.1000238018
 C         -2.9350281711       -0.6194863667        0.4168516623
 C         -3.2510582196        0.6468864612       -0.2502616895
 C         -2.5015963458        1.0580430870       -1.2887786757
 C         -2.6793450151        2.3376556273       -2.0587568732
 C         -1.9934969696        3.5393126677       -1.3939261671
 C         -2.7034994660        4.0828033120       -0.1533070291
 H         -2.2607354485        5.0560414544        0.0681380614
 H         -3.7587235903        4.2460010938       -0.3775408023
 C         -2.5681582672        3.1907215097        1.0887996600
 H         -1.7306463649        2.5014146192        0.9502191249
 H         -2.3212392867        3.8101697993        1.9549856303
 C         -3.8276600965        2.3995124618        1.4450724804
 H         -3.6012956521        1.7722427338        2.3113738074
 H         -4.6244297522        3.0912178150        1.7293751890
 C         -4.3489869556        1.4896120343        0.3250931427
 H         -4.8196109378        2.0865466289       -0.4558720714
 H         -5.0970106647        0.8168962836        0.7526226844
 H         -0.9729502737        3.2530478639       -1.1251556190
 H         -1.9356112433        4.3389934529       -2.1363797212
 H         -2.2252578668        2.1792656623       -3.0393015800
 H         -3.7408077410        2.5473763542       -2.1942510866
 O         -1.4682076938        0.3267119819       -1.7749848083
 C         -1.0682413477       -0.8492665061       -1.1603445443
 O         -0.0466399771       -1.3551847304       -1.6643163081
 O         -3.6158431443       -1.0112232472        1.4038140083
 C         -1.3787342758       -2.5813418958        0.6525985711
 C          0.0969309243       -2.4586902451        0.9432908092
 C          1.0345288373       -3.4491578440        0.6841798047
 C          2.3775181981       -3.2287629711        0.9424268262
 C          2.8166523238       -2.0117404744        1.4298347265
 C          1.8841162057       -1.0150104062        1.6935036687
 C          0.5383199401       -1.2577714884        1.4870002046
 H         -0.1723088099       -0.4722346784        1.7019865116
 N          2.2666529600        0.2695693891        2.1405946354
 S          2.0379001118        1.5118485810        1.0321331203
 O          2.4937583891        2.7101031041        1.7049902252
 O          0.6739683199        1.5187108760        0.5738182270
 C          3.1716045203        1.1133964301       -0.2865111704
 C          2.8192689661        0.1634449398       -1.2239277679
 C          3.7528633980       -0.1985794068       -2.1842631063
 C          5.0096168360        0.3858473159       -2.1896605135
 C          5.3460391072        1.3392612638       -1.2399083744
 C          4.4218386481        1.7031676679       -0.2747607748
 H          4.6356691335        2.4401452327        0.4826903525
 H          6.3229767981        1.7952334639       -1.2465633875
 H          5.7296860302        0.0967155249       -2.9389365882
 H          3.4835805248       -0.9406477493       -2.9187338953
 H          1.8340475381       -0.2776314830       -1.2077345916
 H          3.2185748917        0.3129031795        2.4800510667
 H          3.8675046689       -1.8278963842        1.5968640584
 H          3.0947012532       -4.0082063835        0.7351481214
 H          0.7193796586       -4.3875657678        0.2583743405
 H         -1.9189040634       -2.5244172074        1.6134889948
 C         -1.7729852631       -3.9043013200        0.0146688428
 C         -2.9175701518       -3.9853604768       -0.9496368847
 C         -1.5161671498       -4.2039573055       -1.4308048975
 H         -1.2203337826       -5.2072897626       -1.7005519901
 H         -1.0485125358       -3.4330960220       -2.0220376296
 H         -3.5822135261       -4.8339853294       -0.8865006913
 H         -3.4114684001       -3.0621564091       -1.2170804245
 H         -1.6756426125       -4.7340831694        0.7081445288
