  62
        -98.93653463
 C         -2.2725162231       -0.7385637022       -0.3196244134
 C         -3.2639362377       -0.6895758524        0.6958982469
 C         -3.9782672686        0.5827796814        0.8562829115
 C         -3.6537887634        1.6194253703        0.0629387553
 C         -4.3267670700        2.9605311414        0.0817589041
 C         -5.5006795376        3.0077970913       -0.9061094220
 C         -6.4586321755        1.8229447540       -0.7828810927
 H         -7.2633826896        1.9785546037       -1.5046551705
 H         -5.9357880003        0.9098398668       -1.0767722842
 C         -7.0572172683        1.6339513229        0.6180287724
 H         -8.1277800343        1.4431590522        0.5183824241
 H         -6.9445595238        2.5516966698        1.1962602001
 C         -6.4679674586        0.4629881304        1.4068411072
 H         -6.4924885828       -0.4413836940        0.7936384413
 H         -7.1047328587        0.2847032992        2.2774090655
 C         -5.0359652021        0.6575220966        1.9212125933
 H         -4.9661548136        1.6007849453        2.4668424386
 H         -4.8184483834       -0.1587307451        2.6161913643
 H         -6.0479647539        3.9387137147       -0.7474524058
 H         -5.0984097976        3.0186027786       -1.9217650570
 H         -4.6782081125        3.1691459505        1.0903677951
 H         -3.5936131460        3.7172943478       -0.2022428893
 O         -2.6909875711        1.5435261274       -0.8884337463
 C         -1.9764457413        0.3720140312       -1.1103716364
 O         -1.1288783207        0.4758984498       -2.0176772722
 H          0.4639869499       -0.2535577748       -0.5637419799
 C          0.6763655720       -1.0544386975        0.1298671686
 C         -0.2527971316       -2.0729804184        0.2922607676
 C          0.0393145932       -3.1016099197        1.1793527355
 C          1.2312652813       -3.1059899701        1.8837470771
 C          2.1531748248       -2.0874849380        1.7213327305
 C          1.8707004115       -1.0552628710        0.8357038340
 N          2.7908798547        0.0055658835        0.6674114859
 S          4.3189997515       -0.4192130748        0.0806610149
 O          4.2079941285       -0.9633144653       -1.2561969019
 O          4.9651378142       -1.2625955852        1.0531489798
 C          5.1068595393        1.1767467492        0.0399856588
 C          5.6009990648        1.6965953646        1.2209192679
 C          6.1858040649        2.9525637564        1.2060539623
 C          6.2645122120        3.6638818800        0.0177572966
 C          5.7640167282        3.1284603626       -1.1593169352
 C          5.1765789785        1.8728609690       -1.1510095538
 H          4.7795455338        1.4156171042       -2.0434869724
 H          5.8277327757        3.6827658109       -2.0818992866
 H          6.7204195969        4.6413246680        0.0081459299
 H          6.5773104201        3.3725355507        2.1184731663
 H          5.5236367245        1.1046215996        2.1176976092
 H          2.4069465977        0.7088226298        0.0474449600
 H          3.0890203419       -2.0870822628        2.2550971001
 H          1.4449294523       -3.9109858435        2.5705586458
 H         -0.6791824239       -3.8954975137        1.3230047098
 C         -1.5424658332       -2.0598781181       -0.4884242737
 H         -2.2105761312       -2.8059366548       -0.0297774589
 C         -1.3552328505       -2.4578597361       -1.9467816658
 C         -0.0285360983       -2.5130109176       -2.6376622796
 C         -0.7416482141       -3.7831878120       -2.2898781968
 H         -1.1792419638       -4.3687211842       -3.0840571815
 H         -0.3411299077       -4.3690545106       -1.4760308917
 H          0.8602448678       -2.2561624456       -2.0816197532
 H          0.0081660272       -2.2011987282       -3.6705395066
 H         -2.1935981912       -2.1407817867       -2.5593595177
 O         -3.5405419493       -1.6737004172        1.4324025663
