  62
        -98.92756536
 C         -2.3213773331       -1.0484604554        0.4442396282
 C         -2.5225729035        0.3237099865        0.7320328615
 C         -3.8217708040        0.9114090705        0.3573865006
 C         -4.7322670000        0.1335052805       -0.2546850815
 C         -6.1189032914        0.4896994719       -0.7281977734
 C         -6.2739871694        1.8323911123       -1.4585574957
 C         -7.0324124695        2.8827971539       -0.6453639672
 H         -7.4719799211        3.6075158293       -1.3342213280
 H         -7.8545214023        2.3903146969       -0.1220701936
 C         -6.1864475614        3.6593715987        0.3621690227
 H         -5.5253378275        4.3446825270       -0.1727778229
 H         -6.8649644209        4.2671010662        0.9654672330
 C         -5.3333976976        2.8018175580        1.2992488416
 H         -5.8907119340        1.9262403163        1.6302854620
 H         -5.1152038353        3.3956826840        2.1894712644
 C         -3.9918343466        2.3690028828        0.6883614936
 H         -3.7796293879        2.9611189126       -0.2068579224
 H         -3.1798969423        2.5881345698        1.3892520809
 H         -5.2951546258        2.2115093248       -1.7482293637
 H         -6.8340372223        1.6486277357       -2.3768420057
 H         -6.4099948380       -0.3289605622       -1.3901171956
 H         -6.7965863471        0.4531871427        0.1283481533
 O         -4.4963731520       -1.1817936533       -0.5176366504
 C         -3.3047936628       -1.8112179437       -0.1860673132
 O         -3.2711659283       -3.0119339321       -0.5078161851
 H          1.5438357409       -0.6992478239        0.9728805909
 C          1.2880817541       -1.0466798605       -0.0167052266
 C          0.0202836841       -1.5512358276       -0.2678135644
 C         -0.2922175414       -1.9716404172       -1.5570307832
 C          0.6469924086       -1.8817115269       -2.5678520164
 C          1.9080742136       -1.3716372996       -2.3153791466
 C          2.2336904352       -0.9552540425       -1.0292809734
 N          3.5263763678       -0.4839351857       -0.7449655562
 S          3.7469044692        0.7228105550        0.4149262970
 O          3.6030825463        0.1384114810        1.7242929766
 O          2.9096777660        1.8631281507        0.1175042374
 C          5.4610759862        1.1167799563        0.1229472960
 C          6.4237551519        0.2329807809        0.5736499002
 C          7.7583426252        0.5158764985        0.3313572731
 C          8.1067185685        1.6716202208       -0.3522605716
 C          7.1298784809        2.5501586487       -0.7957427348
 C          5.7925929087        2.2720908264       -0.5585727171
 H          4.9989187668        2.9283078996       -0.8780907286
 H          7.4036415963        3.4494431262       -1.3236461127
 H          9.1463910102        1.8903786838       -0.5379138791
 H          8.5209567026       -0.1630776287        0.6771955261
 H          6.1063991988       -0.6466507717        1.1087955235
 H          4.0555205191       -0.2795763996       -1.5823473638
 H          2.6374691780       -1.2994609092       -3.1078081875
 H          0.3923414087       -2.2087114314       -3.5648331963
 H         -1.2749312788       -2.3727116441       -1.7543023320
 C         -0.9856530229       -1.6423073136        0.8518529251
 H         -0.6244655767       -0.9894849906        1.6636581792
 C         -1.1011765671       -3.0499674354        1.4217568221
 C         -0.5798802872       -4.2688630458        0.7278778540
 C          0.1215928342       -3.7457274306        1.9429533422
 H          0.0470149100       -4.2995618708        2.8665296370
 H          1.0704937695       -3.2494098697        1.8006326113
 H         -1.1607885694       -5.1745498631        0.8099067992
 H         -0.1019986081       -4.1447118241       -0.2307720660
 H         -2.0146685165       -3.1785898074        1.9936070187
 O         -1.6472976701        1.0352987532        1.2991973414
