  62
        -98.94591825
 C         -1.2974395539       -1.4204060119        0.6193265302
 C         -2.3749748000       -1.3127987333       -0.2945140147
 C         -3.3729411203       -0.2738993113        0.0080994295
 C         -3.2200844714        0.4998589422        1.0969282062
 C         -4.1390292550        1.6186804228        1.4936385810
 C         -3.7001040283        2.9601101298        0.8890005790
 C         -3.3907606132        2.8947549469       -0.6064677389
 H         -2.5204045428        2.2544089787       -0.7661930606
 H         -3.1163550293        3.9027955909       -0.9243666266
 C         -4.5533101062        2.3898742329       -1.4721862522
 H         -4.6425818926        3.0337942833       -2.3495317252
 H         -5.4896759686        2.4667902860       -0.9182192458
 C         -4.3855016311        0.9587968958       -1.9852741458
 H         -3.4064819171        0.8501900124       -2.4584795777
 H         -5.1424559356        0.7826576679       -2.7541504535
 C         -4.5376878688       -0.1468407337       -0.9332781972
 H         -4.5997707719       -1.1022023625       -1.4622716528
 H         -5.4667569396       -0.0015874762       -0.3782138646
 H         -2.8046665159        3.3024414105        1.4130060547
 H         -4.4915427271        3.6906384845        1.0664946384
 H         -5.1498123019        1.3780969497        1.1690974522
 H         -4.1288245677        1.7001927473        2.5820961666
 O         -2.1743616733        0.3665075583        1.9534071009
 C         -1.1980232704       -0.5918237585        1.7401511899
 O         -0.3052968043       -0.6091364180        2.6124833051
 H          2.2184589623       -1.2668175997        0.8337133079
 C          1.9815019084       -1.3563913217       -0.2159151021
 C          0.7897834757       -1.9502224784       -0.6093946279
 C          0.5129641851       -2.0577821188       -1.9684447120
 C          1.4141766587       -1.5841061348       -2.9041700421
 C          2.5968967161       -0.9844563905       -2.5084645723
 C          2.8803740163       -0.8661870332       -1.1531943346
 N          4.0752966930       -0.2668615172       -0.7210233117
 S          4.0438029233        0.8057839416        0.5631066990
 O          5.2696516062        1.5622643209        0.4231633504
 O          3.8816653260        0.0912668453        1.8024933575
 C          2.6444592399        1.8608258836        0.2357435770
 C          2.7805643659        2.8153435414       -0.7546441472
 C          1.6959773435        3.6155298625       -1.0716661400
 C          0.4942854764        3.4452340289       -0.4000910227
 C          0.3765945183        2.4862189692        0.5926650615
 C          1.4588691961        1.6829203691        0.9172436494
 H          1.3826611200        0.9302588684        1.6866630346
 H         -0.5527019001        2.3451796114        1.1222645070
 H         -0.3544449996        4.0632606969       -0.6474158438
 H          1.7871892104        4.3666083143       -1.8396058972
 H          3.7349528024        2.9258263161       -1.2436400083
 H          4.6580418063        0.0825326217       -1.4682455246
 H          3.2978588772       -0.6130727861       -3.2403739865
 H          1.1894877400       -1.6760144383       -3.9559168766
 H         -0.4220521193       -2.4923983759       -2.2833220812
 C         -0.1747756775       -2.4335691902        0.4478137913
 H          0.3638889652       -2.4429687377        1.4053599643
 C         -0.6782796740       -3.8363593905        0.1718228749
 C          0.2495916460       -4.9919612067        0.3894517165
 C         -0.9035747825       -4.7702475071        1.3207675845
 H         -1.7422095113       -5.4489213248        1.2764698657
 H         -0.6932710584       -4.4019747401        2.3148440678
 H          1.2428936268       -4.7728054569        0.7524994150
 H          0.2052617716       -5.8253707337       -0.2946047005
 H         -1.3734645068       -3.8954605641       -0.6545544432
 O         -2.5227864240       -2.0398422754       -1.3104279732
