  62
        -98.93535418
 C          2.2162461739        1.0770480053       -0.0266545620
 C          2.9495022647        0.4628182986        1.0189674505
 C          3.8273287316       -0.6685559336        0.6653333563
 C          3.8690613056       -1.0733836849       -0.6172327191
 C          4.7109876579       -2.1630727839       -1.2254836102
 C          6.1797470046       -1.7451848146       -1.4057991709
 C          6.7879789552       -1.0010194343       -0.2197895153
 H          7.7846929236       -0.6636962612       -0.5161057696
 H          6.1927838485       -0.1098414291       -0.0125035016
 C          6.9344879470       -1.8222012872        1.0589496865
 H          7.5662696680       -2.6899762618        0.8567140167
 H          7.4538913162       -1.1959602078        1.7887255942
 C          5.6309340537       -2.3094770556        1.6948492907
 H          5.2276140327       -3.1638090485        1.1577128581
 H          5.8722735531       -2.6627376139        2.7016770746
 C          4.5589960539       -1.2361856389        1.8575616504
 H          3.7779616281       -1.6218405950        2.5243094861
 H          4.9881985547       -0.3767711481        2.3850689726
 H          6.2378084093       -1.0869351127       -2.2761290106
 H          6.7684133136       -2.6389028871       -1.6191287290
 H          4.6343499057       -3.0685389780       -0.6306781161
 H          4.2862796632       -2.3755686251       -2.2092322106
 O          3.1292232416       -0.4696365964       -1.5889888819
 C          2.2895888278        0.6025022440       -1.3356096125
 O          1.6883154472        1.0134481111       -2.3471131007
 H         -0.2973074078        0.8657188169       -1.2718294489
 C         -0.7734021715        1.0964214219       -0.3296720713
 C         -0.0713598339        1.8191770164        0.6258413566
 C         -0.6933867125        2.0984063160        1.8365767052
 C         -1.9866884747        1.6682123219        2.0789952231
 C         -2.6853357319        0.9562132333        1.1205699174
 C         -2.0696652325        0.6655157622       -0.0900192652
 N         -2.7719525194       -0.0542037927       -1.0754790126
 S         -3.4196493455       -1.5380592967       -0.6237556101
 O         -2.6692460564       -2.1338753955        0.4584533209
 O         -3.5088614600       -2.3065538679       -1.8461563800
 C         -5.0641022608       -1.1285796327       -0.0765370195
 C         -5.8985766369       -0.4733046612       -0.9609703808
 C         -7.1828983423       -0.1494919771       -0.5538676645
 C         -7.6097373036       -0.4875295952        0.7219032859
 C         -6.7611414455       -1.1487248468        1.5965383424
 C         -5.4743736672       -1.4743000405        1.1960799788
 H         -4.7771379874       -1.9828859538        1.8428430460
 H         -7.0947833441       -1.4113025167        2.5875881220
 H         -8.6098868287       -0.2342677703        1.0363005119
 H         -7.8455901087        0.3646247268       -1.2312461511
 H         -5.5286217192       -0.2333106990       -1.9437995146
 H         -2.2521149274       -0.1491974670       -1.9370168890
 H         -3.6922837611        0.6182231460        1.3032824700
 H         -2.4564696552        1.8898639489        3.0249805937
 H         -0.1494882710        2.6406771133        2.5960506136
 C          1.3441613024        2.2608305395        0.3562354627
 H          1.7652674098        2.6141023784        1.3107044538
 C          1.4371874187        3.4133200174       -0.6353544489
 C          0.3008386233        3.8704166760       -1.4956236592
 C          0.7442277305        4.7105368167       -0.3382897831
 H          1.2663978643        5.6345569649       -0.5343413603
 H          0.1022586141        4.7386230545        0.5292902438
 H          0.5358096252        4.1952151854       -2.4978375458
 H         -0.6428117799        3.3542434653       -1.4180725328
 H          2.4256305245        3.4817068703       -1.0789158641
 O          2.8884765921        0.8570718558        2.2149593172
