  62
        -98.93886742
 C          1.8674579352        0.8881630019       -0.1154859959
 C          2.4638633356        0.1801277558        0.9510519647
 C          3.5674956590       -0.7387518365        0.6108061712
 C          3.9141009945       -0.8801670838       -0.6824242044
 C          5.0216075462       -1.7195275822       -1.2614721451
 C          6.4096951323       -1.0915128707       -1.0539393498
 C          6.6542410459       -0.5151902844        0.3383411359
 H          7.6195753038       -0.0025173246        0.3201893674
 H          5.8928587224        0.2366502685        0.5538361873
 C          6.6916178124       -1.5396595544        1.4698098144
 H          7.4852644623       -2.2634962038        1.2713908485
 H          6.9535353686       -1.0028720293        2.3852132559
 C          5.3909746957       -2.3042657415        1.7236634442
 H          5.2440813393       -3.0848168855        0.9818855747
 H          5.4938231703       -2.8097519739        2.6885035513
 C          4.1453374860       -1.4292179366        1.8231352141
 H          4.3205311040       -0.6405195374        2.5637370446
 H          3.3285116301       -2.0341870193        2.2359392670
 H          7.1662151357       -1.8457653152       -1.2767914943
 H          6.5219579343       -0.2778233825       -1.7745581848
 H          4.9840220834       -2.7238016490       -0.8496935978
 H          4.8303270455       -1.7934653841       -2.3343652968
 O          3.2840886090       -0.2023664678       -1.6842263422
 C          2.2561910130        0.6900700675       -1.4398822515
 O          1.7825470710        1.2253356287       -2.4593501871
 O          2.0921257295        0.3056497027        2.1505935854
 C          0.7418792007        1.8616561745        0.1823694445
 C         -0.5297372143        1.4028058894       -0.4882373820
 C         -1.3457061488        2.2369648179       -1.2402379652
 C         -2.4948412954        1.7436992879       -1.8353185766
 C         -2.8606720976        0.4193021019       -1.6862226626
 C         -2.0628103170       -0.4188394591       -0.9163793534
 C         -0.9145501257        0.0776405133       -0.3199194860
 H         -0.2927787846       -0.5786176483        0.2766731787
 N         -2.4331431032       -1.7620673535       -0.7404329238
 S         -4.0407631923       -2.1064038525       -0.4324559450
 O         -4.0249014169       -3.3431106983        0.3172862293
 O         -4.7781413559       -2.1333002687       -1.6711405396
 C         -4.6254860386       -0.7631565871        0.5864842104
 C         -3.9861209936       -0.5295904423        1.7879884716
 C         -4.4090050613        0.5269527122        2.5777840733
 C         -5.4592820623        1.3277365371        2.1552760049
 C         -6.0945675699        1.0767619800        0.9492746618
 C         -5.6741040607        0.0226729748        0.1540100095
 H         -6.1368487214       -0.2059751083       -0.7921868624
 H         -6.9120069408        1.6997102615        0.6240487398
 H         -5.7835408153        2.1512421441        2.7716553469
 H         -3.9149983779        0.7229728061        3.5159832712
 H         -3.1746078555       -1.1716570087        2.0917177699
 H         -1.8183825411       -2.2844871365       -0.1346299886
 H         -3.7406655534        0.0171598989       -2.1612754016
 H         -3.1123284782        2.4003653864       -2.4286537586
 H         -1.0770428172        3.2718073656       -1.3718960583
 H          0.5909318891        1.8067139072        1.2709010355
 C          1.1499852837        3.2730271072       -0.1824987757
 C          0.5610056032        4.4420885996        0.5472464480
 C          1.9892278578        4.0547992486        0.7818553417
 H          2.7700134169        4.6889761709        0.3895142082
 H          2.2447340110        3.5777507013        1.7169204488
 H          0.3619010848        5.3476987332       -0.0054866397
 H         -0.1540264930        4.2346343401        1.3286570462
 H          1.3696357353        3.3825338865       -1.2384964522
