  62
        -98.94357087
 C          1.7701172525        1.1100697322        0.5533264402
 C          1.9219012825        0.2547541708       -0.5646913193
 C          3.3036302071        0.0387944067       -1.0185107108
 C          4.3130862612        0.6582929527       -0.3800988818
 C          5.7683880950        0.4774913972       -0.6994301289
 C          6.3817427380       -0.6583208818        0.1317985650
 C          5.5651920371       -1.9506356789        0.1113686812
 H          6.1077834958       -2.6873651755        0.7079148162
 H          4.6084507489       -1.7765363776        0.6092698803
 C          5.3086748160       -2.5172682781       -1.2920252929
 H          5.4919789627       -3.5936718829       -1.2733756660
 H          6.0129781527       -2.0813962793       -2.0015909029
 C          3.8817610853       -2.3165377998       -1.8058299406
 H          3.7512001683       -2.9373691834       -2.6961653285
 H          3.1685215273       -2.6665685396       -1.0551269835
 C          3.5083533724       -0.8794000703       -2.1903519033
 H          4.2576992239       -0.4741849143       -2.8731827040
 H          2.5478638589       -0.9148612743       -2.7123495811
 H          6.4648925663       -0.3227735645        1.1682032034
 H          7.3879521416       -0.8556445220       -0.2425110745
 H          5.8788046108        0.2652578505       -1.7609937746
 H          6.2900286019        1.4075774722       -0.4676204559
 O          4.1238636195        1.4909151718        0.6761340792
 C          2.8539128796        1.7257159616        1.1778703250
 O          2.8222686569        2.4859781755        2.1672825299
 H         -2.1081674424        0.3775388340        0.4808379933
 C         -1.5296914537       -0.2952655776        1.0894434697
 C         -0.2582576056        0.0629995572        1.5056938904
 C          0.4545596862       -0.8216931544        2.3116556767
 C         -0.0880486232       -2.0385623046        2.6744558552
 C         -1.3533986225       -2.3990233953        2.2445925049
 C         -2.0762409335       -1.5214329301        1.4457903372
 N         -3.3382556018       -1.8795579401        0.9625234887
 S         -4.4991703383       -0.7597021409        0.5507311231
 O         -4.5745411382        0.3148777141        1.5132868316
 O         -5.7055969449       -1.5432260595        0.3889005089
 C         -3.9913816060       -0.1291940562       -1.0351062447
 C         -3.4244810871       -0.9892143083       -1.9538517316
 C         -3.0465023779       -0.4913805211       -3.1903180593
 C         -3.2449987747        0.8479650807       -3.4879966783
 C         -3.8233138245        1.6972996654       -2.5575013358
 C         -4.2024061513        1.2056793235       -1.3187070079
 H         -4.6463815792        1.8316542674       -0.5605363970
 H         -3.9763840588        2.7390230655       -2.7913048713
 H         -2.9446691669        1.2330038068       -4.4498358248
 H         -2.5912904521       -1.1475594409       -3.9145343065
 H         -3.2745583709       -2.0225918908       -1.6895802464
 H         -3.7182464801       -2.7484882251        1.3043368789
 H         -1.7750324169       -3.3535155758        2.5202963171
 H          0.4777038278       -2.7152147889        3.2974742492
 H          1.4452006170       -0.5414011242        2.6446972589
 C          0.3840471939        1.3717441717        1.1148493710
 H          0.5297388501        1.9678155094        2.0277818598
 C         -0.4331035717        2.1803263238        0.1288699766
 C         -1.5358490770        3.0709151855        0.6136509331
 C         -0.2627859159        3.6682174530        0.0960169930
 H         -0.2789284810        4.1683011946       -0.8604765135
 H          0.4261379030        4.1039462275        0.8052558230
 H         -2.4267252649        3.1604491260        0.0109725114
 H         -1.7222181908        3.1049744873        1.6766110083
 H         -0.5668332506        1.6707254375       -0.8188063598
 O          0.9584358515       -0.3005596008       -1.1524801508
