  62
        -98.93429692
 C          1.9570219591        0.7066537408        0.2804123588
 C          3.1953103692        0.7588830610        0.9626163287
 C          4.1565979293       -0.3058114989        0.6407709987
 C          3.8117341393       -1.2493527291       -0.2547288711
 C          4.7121064194       -2.3427843290       -0.7554937310
 C          5.7064202392       -1.7724924091       -1.7873186712
 C          7.1694098193       -1.8172847788       -1.3456269513
 H          7.7407481692       -1.2040013589       -2.0457725915
 H          7.5349687394       -2.8426519888       -1.4320883312
 C          7.4512325794       -1.3382709686        0.0817033886
 H          8.5288162593       -1.1770407385        0.1555689085
 H          7.2063371995       -2.1310117485        0.7900927487
 C          6.7309338792       -0.0544553886        0.5134929985
 H          6.4716795691        0.5521893012       -0.3545041916
 H          7.4226089292        0.5357073615        1.1180944383
 C          5.4715778993       -0.2835982687        1.3700069986
 H          5.3807806493        0.5408453014        2.0834153785
 H          5.5854661095       -1.2058129186        1.9463524087
 H          5.4216113191       -0.7404793091       -2.0031190413
 H          5.6152642392       -2.3243516592       -2.7241310311
 H          4.0782370294       -3.0999596792       -1.2171641709
 H          5.2437751195       -2.7936952889        0.0794215190
 O          2.6051073393       -1.2727231693       -0.8797231010
 C          1.6471797192       -0.3002328694       -0.6329580111
 O          0.5874919991       -0.4461421396       -1.2712438110
 O          3.4792944192        1.6521660712        1.8056158885
 C          0.9317468190        1.7941353307        0.5393484287
 C         -0.3906102709        1.2020399906        0.9565676389
 C         -0.4126209007        0.1814290307        1.9038123090
 C         -1.6043754206       -0.3849308393        2.3120343892
 C         -2.8069670807        0.0562326904        1.7863426993
 C         -2.7980291009        1.0775199603        0.8478812391
 C         -1.5994339310        1.6489720904        0.4442370889
 H         -1.6194718711        2.4388927103       -0.2910331412
 N         -4.0377752610        1.5159041801        0.3088340492
 S         -4.5563021910        0.6066294599       -1.0159989707
 O         -3.5422325510        0.5587473998       -2.0471781207
 O         -5.8173437911        1.1954758997       -1.4121414606
 C         -4.8202956707       -1.0087596701       -0.3281479804
 C         -6.0169766906       -1.2725879801        0.3092062197
 C         -6.2106023804       -2.5229021501        0.8742260699
 C         -5.2079995203       -3.4781037400        0.7950933300
 C         -4.0122894304       -3.1954814699        0.1517639598
 C         -3.8113387106       -1.9475104900       -0.4172396804
 H         -2.8942114207       -1.6849956699       -0.9222643805
 H         -3.2321632004       -3.9375003898        0.0928752999
 H         -5.3579820202       -4.4505497799        1.2370885801
 H         -7.1384546804       -2.7481169201        1.3748053300
 H         -6.7662172407       -0.4989593202        0.3413905697
 H         -4.0055261311        2.4835350201        0.0127847390
 H         -3.7432330506       -0.3716549496        2.1049332194
 H         -1.5991350604       -1.1758958292        3.0461583193
 H          0.5262669994       -0.1669378791        2.3124309990
 H          1.3298725990        2.3769098809        1.3839945886
 C          0.8314661488        2.7021132605       -0.6698497214
 C          0.5054232787        4.1559736505       -0.5046427716
 C          1.8929687787        3.7373355806       -0.8849611116
 H          2.2332470186        3.9263452705       -1.8921139217
 H          2.6717187987        3.8069746608       -0.1397026317
 H         -0.1070686314        4.6355743403       -1.2539783316
 H          0.3448569187        4.5222168206        0.4981889684
 H          0.4492612188        2.1866643304       -1.5455315313
