  62
        -98.93990520
 C         -2.0616981334       -1.5699075802        0.0611225600
 C         -1.8207979180       -0.4020977999       -0.6982008907
 C         -2.9021092510        0.6011981575       -0.7167835036
 C         -4.0462662960        0.3557441783       -0.0516813021
 C         -5.3228879707        1.1621787214        0.0698082653
 C         -5.3673658477        2.6245202424       -0.3656254713
 C         -4.5402580427        3.5754659069        0.5001801419
 H         -4.5434313325        4.5595543985        0.0266356463
 H         -5.0318913447        3.6732107912        1.4714742113
 C         -3.0967378270        3.1504452935        0.7587342793
 H         -2.6404400510        3.8993919180        1.4115114385
 H         -3.0857592438        2.2034637593        1.3022082825
 C         -2.2160903889        3.0196808923       -0.4820705125
 H         -2.2235881711        3.9589757935       -1.0384795838
 H         -1.1950026161        2.8338786531       -0.1388575523
 C         -2.5928590728        1.8790186755       -1.4414860009
 H         -1.7256635926        1.6662217312       -2.0732592817
 H         -3.4122162801        2.1642163681       -2.0963939244
 H         -5.0859933623        2.7136058290       -1.4107710396
 H         -6.4123259401        2.9385227634       -0.2934045092
 H         -6.0777579466        0.6085683762       -0.4996831389
 H         -5.6209417850        1.0923724224        1.1208988448
 O         -4.2421270113       -0.8058371761        0.6412339964
 C         -3.2616005753       -1.7758556124        0.7382458528
 O         -3.5729408951       -2.7567219548        1.4439047653
 O         -0.7575408397       -0.2004118780       -1.3395025185
 C         -0.9868123668       -2.6365760288        0.1762294025
 C          0.2688235245       -2.0018369713        0.7216155270
 C          0.2134986474       -1.3830947322        1.9684087881
 C          1.3226285495       -0.7501857570        2.4948326437
 C          2.5110084357       -0.7102386077        1.7854977403
 C          2.5738679898       -1.3184313243        0.5397710021
 C          1.4616628852       -1.9696331538        0.0196388485
 H          1.5308323421       -2.4354361645       -0.9504532304
 N          3.7678689542       -1.2703863053       -0.1966297847
 S          4.6504493338        0.1485552703       -0.2041358281
 O          5.3924190969        0.1193591986       -1.4456268306
 O          5.4474948129        0.2269245424        0.9958351074
 C          3.4666481239        1.4845658029       -0.2239614908
 C          3.5628173186        2.4863976152        0.7206954913
 C          2.6558272216        3.5330196302        0.6839423664
 C          1.6717336934        3.5588235341       -0.2920539921
 C          1.5873876146        2.5440552663       -1.2328199693
 C          2.4924910024        1.4963229936       -1.2019871245
 H          2.4378074319        0.6964315697       -1.9221993713
 H          0.8148285920        2.5536309872       -1.9846064140
 H          0.9654512991        4.3738601216       -0.3211252646
 H          2.7179469865        4.3229180722        1.4151984919
 H          4.3421567531        2.4252412427        1.4631382313
 H          3.6977331925       -1.6647222217       -1.1230278298
 H          3.3865544011       -0.2217321424        2.1812635973
 H          1.2634815909       -0.2781690263        3.4638514911
 H         -0.7194548748       -1.4011132375        2.5159018830
 H         -1.3548327853       -3.3633652659        0.9139797126
 C         -0.8001975210       -3.3419158856       -1.1504603365
 C         -0.2098568258       -4.7186886051       -1.1913470865
 C         -1.6680265384       -4.5190837407       -1.4739495842
 H         -2.0186185858       -4.6379680632       -2.4882786231
 H         -2.3846218241       -4.8279268914       -0.7268162181
 H          0.4391994822       -4.9803771558       -2.0135485927
 H          0.0672195854       -5.1708869067       -0.2510907665
 H         -0.5685588793       -2.6598257677       -1.9604488111
