  62
        -98.94479231
 C         -1.8583097011       -0.7401839155        0.4161271217
 C         -2.4635426583       -0.1518390944       -0.7209098999
 C         -3.5239269959        0.8253070726       -0.4409277836
 C         -3.8245140102        1.1433742958        0.8312066321
 C         -4.8611610835        2.1398637328        1.2744747703
 C         -6.2857748359        1.5722740105        1.3382020797
 C         -6.9466235129        1.3191394861       -0.0173779194
 H         -6.8790425956        2.2207234990       -0.6270726440
 H         -8.0055830244        1.1333528039        0.1727732135
 C         -6.3675315847        0.1267622694       -0.7915889611
 H         -7.1840511856       -0.4831296235       -1.1845250697
 H         -5.7945549672       -0.5063460189       -0.1102486053
 C         -5.4789170634        0.5104684981       -1.9749374445
 H         -6.0748077597        1.0324274492       -2.7269452549
 H         -5.0949187889       -0.4073538941       -2.4272509829
 C         -4.2796600827        1.3928560989       -1.6041269207
 H         -4.6121532644        2.4075237111       -1.3853316411
 H         -3.5981354630        1.4242060743       -2.4579548500
 H         -6.8978435042        2.2908422499        1.8882166399
 H         -6.2663419733        0.6436814006        1.9133213322
 H         -4.5738725246        2.4620107581        2.2778661625
 H         -4.8425260003        3.0069043433        0.6133829278
 O         -3.1800354278        0.5938733202        1.8956616671
 C         -2.1974429683       -0.3672756054        1.7159293772
 O         -1.6971742285       -0.7954718815        2.7769355261
 H          0.4151052585        0.5226018124        0.7830326689
 C          0.8916459301        0.0372402576       -0.0603316418
 C          0.4018715216       -1.1874666219       -0.4986551561
 C          1.0335523291       -1.8073957397       -1.5681210948
 C          2.1028994760       -1.1959287171       -2.2011081194
 C          2.5716363288        0.0334641097       -1.7777404021
 C          1.9610036440        0.6513788409       -0.6929084002
 N          2.4416784193        1.8903132934       -0.2383287923
 S          4.0970742285        2.1000418222       -0.1217673270
 O          4.2812442208        3.0786186801        0.9272067245
 O          4.6336461430        2.4561034299       -1.4118333829
 C          4.7438350350        0.5139712663        0.3794343282
 C          5.6794578217       -0.1261332478       -0.4074673044
 C          6.1516116674       -1.3675952528       -0.0123368246
 C          5.6789038575       -1.9461950001        1.1550332182
 C          4.7412361819       -1.2888338505        1.9370323164
 C          4.2679447974       -0.0462760887        1.5484251446
 H          3.5409875874        0.4895520728        2.1380842808
 H          4.3731454276       -1.7395973782        2.8447897770
 H          6.0421517679       -2.9149727887        1.4595047361
 H          6.8820818243       -1.8800334793       -0.6172012388
 H          6.0156415563        0.3585432557       -1.3095721452
 H          1.9649879301        2.2445636601        0.5772532092
 H          3.3896403468        0.5306156653       -2.2733638729
 H          2.5756527603       -1.6827386710       -3.0401709878
 H          0.6823855539       -2.7649038382       -1.9150979162
 C         -0.7715489402       -1.7855636431        0.2399251699
 H         -0.4349842409       -2.0464940167        1.2540646602
 C         -1.3384873543       -3.0251931793       -0.4194786996
 C         -0.7443486155       -4.3708048938       -0.1346737991
 C         -2.0878055535       -4.0115361676        0.4233991066
 H         -2.9653350096       -4.4839025119        0.0079045668
 H         -2.1658377208       -3.8018531028        1.4806575883
 H          0.0907679669       -4.4145564267        0.5477654032
 H         -0.7010939698       -5.0954040719       -0.9336586481
 H         -1.7176215040       -2.8300762852       -1.4158306401
 O         -2.1373966553       -0.4227900532       -1.9049063063
