  62
        -98.94508509
 C         -1.5506237969       -0.4314355890       -0.5871341200
 C         -2.7999060123       -1.0772209116       -0.3976731152
 C         -3.7671866608       -0.3903221905        0.4666060875
 C         -3.4154330951        0.7696778157        1.0500435802
 C         -4.3119574180        1.5973369452        1.9240142497
 C         -5.0898110748        2.6340333091        1.1012328920
 C         -5.7783186056        2.0518858403       -0.1332696152
 H         -6.3192787900        2.8671584539       -0.6184153515
 H         -5.0163968976        1.7078282979       -0.8362834065
 C         -6.7485370712        0.9003254927        0.1649049486
 H         -7.0159668880        0.9055337100        1.2221956165
 H         -7.6675558810        1.0607532305       -0.4027034020
 C         -6.2244780741       -0.4849584804       -0.2179956316
 H         -7.0593342818       -1.1891543088       -0.1709588283
 H         -5.8676833219       -0.4688630858       -1.2508001186
 C         -5.1052870630       -1.0439977378        0.6696455754
 H         -4.9667295508       -2.0968154237        0.4069081166
 H         -5.4048768356       -0.9892585759        1.7183759371
 H         -5.8336040355        3.1008033734        1.7495851823
 H         -4.3923910243        3.4077937327        0.7720871599
 H         -3.6917991656        2.1170328161        2.6566007228
 H         -5.0035951971        0.9413779113        2.4493763067
 O         -2.2035563155        1.3489801279        0.8658952540
 C         -1.2420250825        0.7744518334        0.0438252738
 O         -0.1968849777        1.4452199280       -0.0404561804
 O         -3.0942876793       -2.1792721234       -0.9339228963
 C         -0.5315591666       -1.1444767392       -1.4634579508
 C          0.4326530345       -1.8829794012       -0.5652239330
 C          0.1452399618       -3.1908530021       -0.1848593114
 C          0.9936909746       -3.8806224933        0.6604162452
 C          2.1392291422       -3.2771571005        1.1478040077
 C          2.4317415025       -1.9681558640        0.7817428934
 C          1.5845193080       -1.2824839841       -0.0780456661
 H          1.8095131100       -0.2636439313       -0.3405249227
 N          3.5985816159       -1.3433263600        1.2449999463
 S          3.5707449699        0.2682180651        1.7158866900
 O          4.7118470017        0.3882515716        2.6024326652
 O          2.2938137794        0.6339853208        2.2800481639
 C          3.9299341893        1.1613164612        0.2191224589
 C          5.1690569725        0.9542773536       -0.3561488604
 C          5.4882755483        1.6292180461       -1.5224954369
 C          4.5672230102        2.4973558614       -2.0900689579
 C          3.3301704128        2.6959683360       -1.4974129539
 C          3.0027979693        2.0244482335       -0.3284607110
 H          2.0388991850        2.1400883526        0.1435721139
 H          2.6096671674        3.3668228103       -1.9382582959
 H          4.8131013909        3.0223868611       -2.9998098569
 H          6.4497350103        1.4770078314       -1.9858284789
 H          5.8565541006        0.2778356567        0.1236250995
 H          4.1467561603       -1.9000239464        1.8849503892
 H          2.8022394013       -3.8121995306        1.8110384583
 H          0.7602876526       -4.8951493915        0.9466798383
 H         -0.7612630345       -3.6532904772       -0.5485286676
 H         -1.1098735986       -1.8989724406       -2.0145962029
 C          0.1581625478       -0.2409801820       -2.4633319067
 C          0.9282931447       -0.8639358290       -3.5879134363
 C         -0.3663834825       -0.1620861391       -3.8645882009
 H         -0.3404558043        0.7916067195       -4.3698957510
 H         -1.2298375400       -0.7625792703       -4.1117317425
 H          1.8472251320       -0.3950139495       -3.9038550044
 H          0.9414702401       -1.9419688565       -3.6439445691
 H          0.5467778750        0.6717810176       -2.0320240027
