  62
        -98.93416125
 C         -2.5091545094       -0.7708134619        0.9425510295
 C         -3.5521893693       -1.1127294813        0.0459883192
 C         -4.8133228495       -0.3711673517        0.2204486801
 C         -4.9108299097        0.5638883773        1.1813518010
 C         -6.1130418598        1.4296213968        1.4210237619
 C         -6.0243899602        2.7380969676        0.6231168432
 C         -5.6739559102        2.5404808191       -0.8517312670
 H         -5.6684091505        3.5273894896       -1.3196200660
 H         -4.6583191601        2.1447580394       -0.9272633275
 C         -6.6353075501        1.6185000297       -1.6147957279
 H         -6.8736423202        2.0795430706       -2.5756754874
 H         -7.5704109500        1.5194368189       -1.0623336579
 C         -6.0750321998        0.2271395201       -1.9153261193
 H         -5.0935392498        0.3217094308       -2.3869223592
 H         -6.7383061397       -0.2580608794       -2.6364290497
 C         -5.9427027395       -0.7130315011       -0.7106366602
 H         -6.8900110994       -0.7530690118       -0.1692773202
 H         -5.7221878393       -1.7136075206       -1.0941467612
 H         -6.9808259203        3.2577017573        0.7050529938
 H         -5.2550867703        3.3682228373        1.0754647038
 H         -7.0105460097        0.8813784369        1.1412082114
 H         -6.1594146998        1.6660941557        2.4853835121
 O         -3.8901380697        0.8620883967        2.0256925112
 C         -2.6732556995        0.2123737071        1.9224258905
 O         -1.8236716896        0.5836190464        2.7579107108
 H          1.3652550806       -0.5529519615        1.4002058895
 C          1.0574300405       -0.3346781506        0.3863090597
 C         -0.2130059594       -0.7026160905       -0.0318093205
 C         -0.6005844396       -0.4007744293       -1.3332202702
 C          0.2658693502        0.2567700218       -2.1877264096
 C          1.5303478602        0.6271744817       -1.7654049793
 C          1.9284604803        0.3295524505       -0.4690370597
 N          3.2067529502        0.7162936403       -0.0293618194
 S          4.4963598802        0.4332082117       -1.0864396597
 O          4.5643534299        1.5250296726       -2.0247557986
 O          4.3782084605       -0.8877460878       -1.6613970810
 C          5.8810481703        0.5060686509        0.0319098103
 C          6.3806923706       -0.6681329995        0.5627118491
 C          7.4432252206       -0.6032947402        1.4502555291
 C          7.9824691804        0.6277748796        1.7922411703
 C          7.4696388401        1.7975334800        1.2512765515
 C          6.4080866600        1.7400965407        0.3623644915
 H          5.9836127898        2.6212256710       -0.0896671776
 H          7.8935125899        2.7521430199        1.5181008224
 H          8.8096640904        0.6753929491        2.4827063103
 H          7.8458668809       -1.5109973805        1.8701401882
 H          5.9369877108       -1.6035045894        0.2610349282
 H          3.4121777304        0.3742601494        0.8994879103
 H          2.2157154200        1.1358081825       -2.4242942189
 H         -0.0461056699        0.4835682527       -3.1965053194
 H         -1.5825850795       -0.6957317091       -1.6707151205
 C         -1.1379256192       -1.4257273316        0.9144081088
 H         -0.7370128492       -1.2903936525        1.9316279589
 C         -1.1955095789       -2.9251082713        0.6533712873
 C         -0.7462771588       -3.5671748400       -0.6206920633
 C          0.0703366413       -3.7300809510        0.6236651364
 H          0.0854483415       -4.6909773715        1.1151851955
 H          1.0046593812       -3.1908454109        0.6754993769
 H         -0.3587551690       -2.9351125391       -1.4041840127
 H         -1.3189059187       -4.4060103898       -0.9854084441
 H         -2.0486022088       -3.3834919020        1.1431859569
 O         -3.4600696992       -1.9828460104       -0.8565632616
