  62
        -98.94523736
 C          2.1494564706        0.8544616002        0.0616008609
 C          2.9399686606        0.3178948402        1.1051970210
 C          3.6703875409       -0.9138917696        0.7860593309
 C          3.5241923212       -1.4809247795       -0.4255288292
 C          4.1735003215       -2.7571884492       -0.8882251293
 C          5.6012515916       -2.5749999389       -1.4213677291
 C          6.6613299714       -2.2890961088       -0.3569616089
 H          6.5981214915       -3.0431284989        0.4282167410
 H          7.6352223915       -2.4001784985       -0.8376711888
 C          6.5736166810       -0.8875924689        0.2631432912
 H          5.9620830109       -0.2450697689       -0.3745221288
 H          7.5708014509       -0.4436603586        0.3021832814
 C          6.0085517308       -0.8570011192        1.6832056812
 H          5.9569266505        0.1849569108        2.0089678313
 H          6.6837833909       -1.3877072991        2.3579348212
 C          4.6065684109       -1.4656978595        1.8186784409
 H          4.6588684212       -2.5518045895        1.7446909908
 H          4.2104147908       -1.1998537097        2.8019238209
 H          5.8750181418       -3.4975453787       -1.9384721592
 H          5.5976571515       -1.7692715988       -2.1590665090
 H          4.1775736716       -3.4825231893       -0.0738287594
 H          3.5502249717       -3.1464681393       -1.6964484394
 O          2.7244266712       -0.9530570095       -1.3911979592
 C          2.0363067909        0.2350358503       -1.1833505991
 O          1.3687350009        0.6196004203       -2.1619922292
 O          3.0219558304        0.8370609401        2.2511542410
 C          1.3810002603        2.1391383900        0.3072050710
 C         -0.0966640096        1.9321968597        0.0794089708
 C         -0.9033190498        2.8673612896       -0.5563385692
 C         -2.2530372497        2.6210847493       -0.7394550093
 C         -2.8288942695        1.4463684791       -0.2926296296
 C         -2.0326017993        0.5048960792        0.3460819504
 C         -0.6831857694        0.7587841695        0.5364808106
 H         -0.0662480293        0.0204014096        1.0349768106
 N         -2.6064139191       -0.6899216810        0.8150687502
 S         -3.5872091088       -1.5689522611       -0.2280902100
 O         -3.5056339485       -2.9344517011        0.2446789098
 O         -3.2388514687       -1.3446972308       -1.6115132500
 C         -5.2194938590       -0.9391944115        0.1054494499
 C         -5.6824927791       -0.9910162018        1.4057393698
 C         -6.9511075093       -0.5083703321        1.6841427197
 C         -7.7320805993        0.0126760279        0.6631344797
 C         -7.2545639391        0.0537370082       -0.6378128602
 C         -5.9856925690       -0.4267393515       -0.9229292402
 H         -5.5705595589       -0.4112693113       -1.9183121001
 H         -7.8632999691        0.4578966681       -1.4306060903
 H         -8.7190041994        0.3883104076        0.8825516696
 H         -7.3257781494       -0.5394734523        2.6945434097
 H         -5.0452857491       -1.4070454717        2.1680868598
 H         -1.9463255190       -1.3003465409        1.2749929802
 H         -3.8770601294        1.2462013089       -0.4425710097
 H         -2.8655425898        3.3549465592       -1.2405609593
 H         -0.4730949299        3.7868241797       -0.9177900990
 H          1.5337067301        2.3716235999        1.3722988811
 C          1.9656016101        3.2633317602       -0.5235493488
 C          1.9432806098        4.6743030301       -0.0184777686
 C          3.2340173699        3.9149573004       -0.0629820685
 H          3.9719412300        4.1881731707       -0.8023178784
 H          3.6576154499        3.5677581504        0.8682331415
 H          1.7969019097        5.4735348302       -0.7293168385
 H          1.4954989696        4.8528971199        0.9472864914
 H          1.8467491503        3.0949905403       -1.5883580888
