  62
        -98.93318347
 C         -2.2948108858       -0.6899631516        0.5679375329
 C         -3.3699321131       -0.9262699852       -0.3207980267
 C         -4.6419171044       -0.2401218025       -0.0190338018
 C         -4.7200090583        0.5881733529        1.0379230233
 C         -5.8767575168        1.3870843904        1.6016183949
 C         -7.1556029861        1.5899978948        0.7931872840
 C         -6.9945667279        2.4650622502       -0.4495332306
 H         -7.9372341239        2.4520611151       -1.0008979567
 H         -6.8112051908        3.4934546999       -0.1281666391
 C         -5.8613541678        2.0694507068       -1.3929212066
 H         -5.8557638654        2.7795624147       -2.2243468635
 H         -4.9031250403        2.1700120981       -0.8788712886
 C         -5.9626032654        0.6646236626       -1.9832720211
 H         -5.1870358913        0.5728035412       -2.7482734529
 H         -6.9309579122        0.5397702824       -2.4717284366
 C         -5.7652211410       -0.4887384894       -0.9849214138
 H         -6.6856066223       -0.7126993299       -0.4513979728
 H         -5.4891576995       -1.3816572869       -1.5529908599
 H         -7.5912262490        0.6304032871        0.5309487025
 H         -7.8665553897        2.0889235708        1.4574318192
 H         -6.1387780824        0.8993500735        2.5471245375
 H         -5.4609332443        2.3645739133        1.8661873482
 O         -3.6491583769        0.8013787200        1.8589039240
 C         -2.4349542177        0.1768200487        1.6549866142
 O         -1.5664468772        0.4677063279        2.5033049408
 H          1.4840803198       -0.2050419205        0.8434363832
 C          1.1803871813       -0.1470874410       -0.1920811058
 C         -0.0518300896       -0.6482085413       -0.5849167078
 C         -0.4244730412       -0.5397359696       -1.9206735006
 C          0.4250455795        0.0533757322       -2.8364195468
 C          1.6664607678        0.5249193329       -2.4473198852
 C          2.0452038604        0.4258746628       -1.1138326982
 N          3.2919124082        0.9047954856       -0.6804311880
 S          4.0890142943        0.0452089819        0.5358349680
 O          3.9407332485       -1.3756191167        0.3166036237
 O          3.6542965380        0.5417441616        1.8176452475
 C          5.7750561995        0.5428588466        0.2367260878
 C          6.2087956289        1.7587017265        0.7308882720
 C          7.5093848430        2.1609040903        0.4716275583
 C          8.3493157479        1.3463340152       -0.2734943584
 C          7.9003622408        0.1281563786       -0.7610299679
 C          6.6003733230       -0.2798159814       -0.5065448367
 H          6.2098741546       -1.2215615302       -0.8573889906
 H          8.5567069211       -0.5044204551       -1.3366265661
 H          9.3612382725        1.6618030856       -0.4727319611
 H          7.8628469498        3.1057695106        0.8517444628
 H          5.5233348631        2.3526232442        1.3129776096
 H          3.9105874642        1.1419309290       -1.4439173413
 H          2.3352662485        0.9712550014       -3.1676986044
 H          0.1238341614        0.1343768836       -3.8700325240
 H         -1.3828350259       -0.9267129494       -2.2304045074
 C         -0.9283583725       -1.3403558743        0.4318434006
 H         -0.4457285662       -1.2184437012        1.4119897748
 C         -0.9937885258       -2.8241489500        0.1157770987
 C          0.2362970805       -3.6552750827        0.3169148315
 C         -0.9388428237       -3.8193566654        1.2328633121
 H         -1.5334736483       -4.7170667309        1.1533666386
 H         -0.8568903227       -3.4368376954        2.2403358949
 H          0.4469146410       -4.4406590082       -0.3928827565
 H          1.1203736531       -3.1616000582        0.6954070949
 H         -1.6253343455       -3.0542089134       -0.7319625746
 O         -3.3055536306       -1.6803426000       -1.3278319279
