  62
        -98.94912656
 C         -2.0500129307       -0.5322916482        0.5611539587
 C         -1.4220885996        0.4836572300        1.3207696102
 C         -1.7704643176        1.8661967609        0.9743541317
 C         -2.6392007168        2.0918899933       -0.0271929785
 C         -3.0885907247        3.4482632545       -0.4872177770
 C         -2.2193244834        3.9796234447       -1.6339445160
 C         -0.7164156737        3.8956191423       -1.3663197454
 H         -0.4060891751        2.8478271018       -1.3442852465
 H         -0.2090341526        4.3543667426       -2.2186426746
 C         -0.2589345333        4.5823813901       -0.0718914143
 H          0.6483950575        5.1517986191       -0.2847797332
 H         -1.0174631425        5.2910913207        0.2641275862
 C          0.0803356448        3.6139029483        1.0628649647
 H          0.7235899939        2.8230407679        0.6676025441
 H          0.6503132052        4.1589356266        1.8204742256
 C         -1.1197654164        2.9651226791        1.7661702833
 H         -0.7579062375        2.4986792175        2.6873226229
 H         -1.8483675555        3.7332798497        2.0347878939
 H         -2.4377785138        3.3994809060       -2.5335969968
 H         -2.4986182819        5.0183812253       -1.8229102649
 H         -4.1195371646        3.3642255063       -0.8365326976
 H         -3.0564060942        4.1373599534        0.3547501238
 O         -3.2009689778        1.0943535550       -0.7556002899
 C         -2.8924106197       -0.2363287158       -0.5100951214
 O         -3.4394935804       -1.0359412041       -1.2938298226
 O         -0.6115954004        0.2440277378        2.2573251303
 C         -1.6911242028       -1.9833676290        0.8477270771
 C         -0.8334943929       -2.4630474788       -0.2972769530
 C         -1.1996853638       -3.4587256573       -1.1913371544
 C         -0.3876169537       -3.7481625871       -2.2756172044
 C          0.7801511874       -3.0429935484       -2.5003190130
 C          1.1618592483       -2.0518019100       -1.6004275816
 C          0.3726283881       -1.8003299803       -0.4925779317
 H          0.6662726288       -1.0351039515        0.2072145394
 N          2.3377185394       -1.3156964814       -1.7912515801
 S          2.4969858813        0.2629280477       -1.2470008282
 O          1.2247470722        0.9339199393       -1.1347050280
 O          3.4492183226        0.8546267175       -2.1650794170
 C          3.2948262003        0.0689849047        0.3339426720
 C          2.6296341200        0.3118727042        1.5177314220
 C          3.3063584392        0.1280117519        2.7147332221
 C          4.6265080486       -0.2919540099        2.7096812322
 C          5.2831304889       -0.5287375894        1.5107593322
 C          4.6133428997       -0.3469806970        0.3129947521
 H          5.0880009300       -0.5059121865       -0.6409274178
 H          6.3110678084       -0.8537330208        1.5077052424
 H          5.1454193280       -0.4340098618        3.6446111223
 H          2.7865518890        0.3115965515        3.6415086420
 H          1.5971232005        0.6273226357        1.5105260118
 H          2.7944289396       -1.4584968910       -2.6793601801
 H          1.3907622975       -3.2496710882       -3.3662065129
 H         -0.6820864844       -4.5204179458       -2.9703476254
 H         -2.1263206546       -3.9911909662       -1.0546999155
 H         -1.0691777832       -1.9565741910        1.7538989074
 C         -2.9124538741       -2.8330764477        1.1151741555
 C         -2.7639096362       -4.1297583888        1.8520379540
 C         -3.4192522049       -2.9593750587        2.5195951951
 H         -4.4864835650       -2.9862116874        2.6805043046
 H         -2.8745474746       -2.4406247304        3.2948385660
 H         -3.3819051472       -4.9640129876        1.5571942427
 H         -1.7723404667       -4.4078459005        2.1753734142
 H         -3.6499062836       -2.7753659857        0.3236509352
