  62
        -98.94967444
 C         -1.4983494793       -1.0650478217        0.0411366448
 C         -2.5152052241       -0.6373954172        0.9249255342
 C         -3.0429976832        0.7123147814        0.6912121392
 C         -2.5172172146        1.4627080378       -0.2946663465
 C         -2.9861409469        2.8393807691       -0.6653866077
 C         -4.0762924818        2.7860398091       -1.7450291496
 C         -5.2038026481        1.8016452609       -1.4340988409
 H         -5.9286128173        1.8695992011       -2.2480848808
 H         -4.8018481516        0.7860236946       -1.4437005885
 C         -5.9129632308        2.0519201279       -0.0959584657
 H         -5.7050545805        3.0651546768        0.2497307513
 H         -6.9912235031        1.9764951018       -0.2512104487
 C         -5.5521310135        1.0571138893        1.0087710575
 H         -6.2610020859        1.1893742130        1.8304678463
 H         -5.6698993857        0.0366614540        0.6356792041
 C         -4.1417234701        1.1938450152        1.5968116610
 H         -4.0905131411        0.5635703349        2.4898718463
 H         -3.9653224279        2.2284072558        1.8996364207
 H         -4.4890141823        3.7890177892       -1.8678319607
 H         -3.6132288689        2.4903681906       -2.6891632171
 H         -3.3632354592        3.3394722573        0.2247634596
 H         -2.1300522092        3.3994257588       -1.0461115744
 O         -1.5229824028        1.0281842970       -1.1079367708
 C         -0.9851165204       -0.2380841875       -0.9571712247
 O         -0.0754482828       -0.5116162623       -1.7646938247
 O         -2.9571157233       -1.3509471046        1.8678298224
 C         -0.8936760122       -2.4451351998        0.2179559741
 C          0.6006468313       -2.3459766232        0.4025245920
 C          1.4955351148       -3.2577596948       -0.1445546903
 C          2.8584267886       -3.1073012748        0.0457674066
 C          3.3588959008       -2.0359281676        0.7626481140
 C          2.4712348022       -1.1243485108        1.3214212258
 C          1.1069465322       -1.3004613236        1.1641144980
 H          0.4339521113       -0.5811884658        1.6081700597
 N          2.9239440891        0.0062799047        2.0370055384
 S          2.6149651849        1.4930698371        1.3212162428
 O          3.2497408037        2.4656608022        2.1859087486
 O          1.1997185168        1.6543883291        1.1114593492
 C          3.5011443727        1.4122731130       -0.2251835894
 C          2.9370314828        0.7563855554       -1.3008474944
 C          3.6827369249        0.6259523181       -2.4633388289
 C          4.9661350028        1.1450081987       -2.5300554152
 C          5.5165201609        1.8021664455       -1.4395729787
 C          4.7810173612        1.9324767145       -0.2732991200
 H          5.1644807707        2.4366686856        0.5992023729
 H          6.5136428846        2.2085695712       -1.4935607076
 H          5.5389384410        1.0373426959       -3.4376456608
 H          3.2465483851        0.1142273978       -3.3062120486
 H          1.9335051378        0.3642406557       -1.2339827996
 H          3.9048091539       -0.0380464478        2.2805260416
 H          4.4227470464       -1.9015256101        0.8884827577
 H          3.5401776883       -3.8234548265       -0.3866308376
 H          1.1244750156       -4.0854843359       -0.7266267591
 H         -1.3326329968       -2.8421057174        1.1461151137
 C         -1.2945954319       -3.3444312438       -0.9345005203
 C         -1.5003128118       -4.8135442381       -0.7197271107
 C         -2.6786862383       -3.9182551342       -0.9531655385
 H         -3.1994516215       -3.9805957194       -1.8968939306
 H         -3.3201054712       -3.6846916605       -0.1157384977
 H         -1.2141593606       -5.4946482205       -1.5069799093
 H         -1.3501688286       -5.1998072909        0.2770357607
 H         -0.8764099646       -3.0160866688       -1.8796680112
