  62
        -98.93864077
 C          1.7565719470        0.0664297307        0.4359354719
 C          2.9539564029        0.3076686503        1.1474454563
 C          4.2057724582       -0.1251028094        0.5022289547
 C          4.1539670449       -0.7188382154       -0.7049169287
 C          5.2479368605       -1.2985708796       -1.5776934038
 C          6.7168585704       -0.9892398191       -1.3003780380
 C          7.1201141420        0.4654960091       -1.5390555632
 H          8.1553692134        0.5905566834       -1.2142820371
 H          7.0821821478        0.6641644583       -2.6131357993
 C          6.2515007997        1.5125289624       -0.8463776082
 H          5.2327801742        1.4597794852       -1.2359444050
 H          6.6449438403        2.4986860855       -1.1075438408
 C          6.2056756313        1.4195347584        0.6774126941
 H          7.2213503499        1.4337987476        1.0773615313
 H          5.6885110312        2.3095884653        1.0455939729
 C          5.4724921934        0.1915131256        1.2442835551
 H          6.1248950696       -0.6776504358        1.2796971527
 H          5.1755994778        0.4207082837        2.2719095190
 H          7.2995205198       -1.6096158134       -1.9868936661
 H          6.9836029297       -1.2990827373       -0.2943287453
 H          5.1101489951       -2.3850325406       -1.5419208438
 H          5.0047023598       -0.9929835605       -2.6003601954
 O          2.9695513427       -0.9412181747       -1.3488188698
 C          1.7520493945       -0.5560372861       -0.8103430609
 O          0.7680457725       -0.8184531468       -1.5274312688
 H         -2.1914235416        0.1371100687        0.2638139381
 C         -1.7814838234       -0.7136773740        0.7806326973
 C         -0.4699908335       -0.6962547968        1.2285103326
 C          0.0216780716       -1.8163735665        1.8953168838
 C         -0.7737288725       -2.9273427407        2.0926187324
 C         -2.0775818735       -2.9467178830        1.6281912456
 C         -2.5819515507       -1.8331783237        0.9689404076
 N         -3.9147729945       -1.8065281910        0.5332793981
 S         -4.3286049953       -1.1130214390       -0.9339494970
 O         -5.6411414770       -1.6570548333       -1.2174981794
 O         -3.3225305931       -1.3299695733       -1.9455398266
 C         -4.5020668681        0.6230985235       -0.5816623064
 C         -3.9289234805        1.5458312399       -1.4337577888
 C         -4.1097573989        2.8965334102       -1.1784538528
 C         -4.8567629316        3.2975352317       -0.0810327140
 C         -5.4247382610        2.3572924223        0.7654347244
 C         -5.2513649395        1.0058731463        0.5134908889
 H         -5.6812232857        0.2461934087        1.1443198478
 H         -6.0023148368        2.6740234350        1.6187296510
 H         -4.9934115251        4.3492620431        0.1155825755
 H         -3.6667220333        3.6279937414       -1.8359997475
 H         -3.3444886103        1.1881874284       -2.2672969746
 H         -4.4246947396       -2.6648384508        0.6854561761
 H         -2.6996538087       -3.8166448911        1.7754103625
 H         -0.3763510058       -3.7891669807        2.6076141674
 H          1.0420187969       -1.8028524279        2.2539105329
 C          0.4371340912        0.4955808860        1.0505910121
 H          0.6965912420        0.8755532500        2.0503383201
 C         -0.1856706929        1.6211732076        0.2527132070
 C         -1.0649274227        2.6236495816        0.9371469621
 C          0.3037281078        3.0200350636        0.4736971733
 H          0.3923099370        3.6747832265       -0.3801181323
 H          1.0767546847        3.1624082344        1.2147052208
 H         -1.2234131290        2.5013197461        1.9977597917
 H         -1.9211775281        3.0083180181        0.4044915027
 H         -0.4277883394        1.3292969118       -0.7637733552
 O          2.9785244859        0.8527688582        2.2837433006
