  62
        -98.94008783
 C         -2.6171346576       -1.1529658298        0.2755296223
 C         -2.5743903542       -0.3148706541       -0.8664544172
 C         -3.4546372398        0.8645137999       -0.8281593813
 C         -4.2225901948        1.0862472176        0.2530528898
 C         -5.1189432764        2.2749432487        0.4421441813
 C         -4.3805088683        3.4181767915        1.1525079125
 C         -3.0158995857        3.7443768323        0.5449271701
 H         -2.6019029558        4.5836125955        1.1083289632
 H         -2.3452313411        2.8949938970        0.6965278112
 C         -3.0532688783        4.0988533541       -0.9483032023
 H         -4.0696550111        4.3666055814       -1.2392287366
 H         -2.4263905017        4.9773949109       -1.1144850661
 C         -2.5337881295        2.9985335090       -1.8758070760
 H         -1.5530646473        2.6597107714       -1.5316463028
 H         -2.3998251088        3.4293297260       -2.8714718178
 C         -3.4404490578        1.7705343658       -2.0271024193
 H         -4.4530270986        2.0887256070       -2.2829273495
 H         -3.0483227273        1.1693953625       -2.8525618558
 H         -5.0136946677        4.3068308934        1.1272175975
 H         -4.2314078431        3.1372468095        2.1978779939
 H         -5.4803447477        2.6090283507       -0.5283729354
 H         -5.9709152597        1.9702761883        1.0523465797
 O         -4.2253782650        0.2680508210        1.3372835113
 C         -3.4093974194       -0.8508305328        1.3853570842
 O         -3.4726365542       -1.4832581206        2.4593925173
 H         -0.2031281100       -0.4661308806        1.3687715458
 C          0.3199752597       -1.0081399519        0.5885552826
 C         -0.3309350369       -2.0541075211       -0.0557272644
 C          0.3515836214       -2.7450032335       -1.0472393317
 C          1.6433031622       -2.3835271433       -1.3892832494
 C          2.2796685150       -1.3317224467       -0.7574456273
 C          1.6085911200       -0.6362734585        0.2402334168
 N          2.2409455886        0.4471956986        0.8769736679
 S          3.7762935559        0.2030835649        1.5117085627
 O          3.9687726750       -1.1708701155        1.9153856632
 O          3.9189722489        1.2022687996        2.5485500566
 C          4.8695593662        0.6046842484        0.1656053097
 C          4.7354918224        1.8410790367       -0.4350554697
 C          5.5859406417        2.1738343801       -1.4772145962
 C          6.5525057758        1.2714343586       -1.8959820905
 C          6.6763985779        0.0354621730       -1.2801256857
 C          5.8279751344       -0.3042879973       -0.2377307409
 H          5.8825541197       -1.2557103483        0.2668741557
 H          7.4283254468       -0.6644345712       -1.6074402995
 H          7.2129749828        1.5334082496       -2.7074205028
 H          5.4918710536        3.1336369181       -1.9592002391
 H          3.9732725036        2.5137309544       -0.0783935689
 H          1.6541977982        0.9225775924        1.5472490158
 H          3.2817448850       -1.0423630340       -1.0288580718
 H          2.1592977255       -2.9249855959       -2.1674672658
 H         -0.1343032270       -3.5526344674       -1.5690818204
 C         -1.7356048765       -2.3850895429        0.3886112209
 H         -1.6962507289       -2.6065254837        1.4688897836
 C         -2.3059785450       -3.6258659870       -0.2824135242
 C         -3.7839697931       -3.7948913825       -0.4665955586
 C         -2.8988203212       -3.5930255477       -1.6577747710
 H         -2.7225765865       -4.4352298812       -2.3109118782
 H         -2.9248812629       -2.6426814636       -2.1661966306
 H         -4.2115808493       -4.7721077282       -0.2990886542
 H         -4.4240475796       -2.9809738303       -0.1576520729
 H         -1.7543251152       -4.5204379756       -0.0095682149
 O         -1.8450948486       -0.5253671752       -1.8682395873
