  62
        -98.95135902
 C         -2.3433081898        0.0002347634        0.1167040403
 C         -1.6166571426        0.5455631396       -0.9679020698
 C         -1.3898782303        1.9949711736       -0.9221183930
 C         -1.7782930173        2.6948849366        0.1591484749
 C         -1.6088457036        4.1756082209        0.3655353166
 C         -0.2136714131        4.5740370840        0.8660972866
 C          0.8904709482        4.5400984493       -0.1911394562
 H          1.7478830137        5.0714584366        0.2268770408
 H          0.5635521847        5.0898525006       -1.0749564511
 C          1.3398306198        3.1291730634       -0.5957127111
 H          1.0368164050        2.4116851491        0.1709665755
 H          2.4319750633        3.0956025252       -0.6394448095
 C          0.8216955637        2.6627706895       -1.9553116869
 H          1.1901435681        1.6494934670       -2.1245195134
 H          1.2281830884        3.3056197496       -2.7398947225
 C         -0.7061866598        2.6463173161       -2.0883010850
 H         -0.9619191624        2.0692000849       -2.9807317764
 H         -1.0796999126        3.6631576455       -2.2128596857
 H          0.0612311314        3.9173479395        1.6956017762
 H         -0.2846077177        5.5927290217        1.2552361951
 H         -2.3433170087        4.4693745019        1.1186719253
 H         -1.8301952181        4.7060499040       -0.5613843669
 O         -2.4089394595        2.1201663195        1.2177101096
 C         -2.7111736049        0.7695495865        1.2197894436
 O         -3.3078363534        0.3761161928        2.2448776117
 O         -1.1874566272       -0.1393994232       -1.9336904309
 C         -2.6626385707       -1.4850542821        0.1530446728
 C         -1.3751281864       -2.2728175644        0.1844753727
 C         -1.1223020989       -3.3827914931       -0.6114850623
 C          0.0985941510       -4.0323480394       -0.5388641927
 C          1.0972758833       -3.5764152764        0.3026628294
 C          0.8500596678       -2.4705399360        1.1079557444
 C         -0.3879801335       -1.8515172868        1.0661721576
 H         -0.5698662236       -0.9975561609        1.7023610380
 N          1.8404743245       -1.9339025797        1.9580139240
 S          2.3320241422       -0.3639374421        1.6282023671
 O          3.4141229553       -0.1067170679        2.5538806078
 O          1.2065605697        0.5310425840        1.6985375550
 C          2.9833920937       -0.4566610812       -0.0300700172
 C          4.3545907468       -0.4806749504       -0.2011902619
 C          4.8714079378       -0.6321796446       -1.4773545622
 C          4.0117253946       -0.7733714960       -2.5566563235
 C          2.6389917187       -0.7547802341       -2.3675873155
 C          2.1139047955       -0.5931649411       -1.0939219025
 H          1.0477028841       -0.5659022176       -0.9317515470
 H          1.9601088661       -0.8630009610       -3.1986992372
 H          4.4118057514       -0.8978715199       -3.5504604813
 H          5.9392257066       -0.6445899207       -1.6253906055
 H          4.9821755936       -0.3720386646        0.6686384828
 H          2.6574823626       -2.5221993121        2.0529192737
 H          2.0589435045       -4.0657791332        0.3367000588
 H          0.2818168630       -4.8939130855       -1.1624030696
 H         -1.8785214462       -3.7354191973       -1.2933722226
 H         -3.1874778083       -1.6568216876        1.1046415220
 C         -3.5803842181       -1.8646239762       -0.9897261384
 C         -4.5259629636       -3.0179759772       -0.8441949049
 C         -5.0507380329       -1.6144941004       -0.8491443281
 H         -5.6004257363       -1.2697763325       -1.7119867019
 H         -5.3939699916       -1.1908744173        0.0838856824
 H         -4.7208647635       -3.6381656866       -1.7060174683
 H         -4.5224275255       -3.5523636914        0.0938856433
 H         -3.1336175252       -1.6850030778       -1.9604862304
