  62
        -98.93828608
 C         -1.9969481253       -1.0488228716        0.2514336292
 C         -2.3414133091        0.1197436269       -0.4646896784
 C         -3.6322280048        0.7570884022       -0.1265602286
 C         -4.3916273259        0.2229274424        0.8470481093
 C         -5.7416191147        0.6738277836        1.3376155372
 C         -6.8785191949        0.2941928269        0.3752808757
 C         -6.5834483057        0.5519521632       -1.0998731796
 H         -5.6884017169       -0.0020619033       -1.3883392301
 H         -7.4164732978        0.1473071047       -1.6806902133
 C         -6.4172354892        2.0206138495       -1.4825743023
 H         -6.3066612930        2.0621254463       -2.5692323188
 H         -7.3278825402        2.5643254968       -1.2214445463
 C         -5.2229123239        2.7444434094       -0.8569405312
 H         -5.4248742225        3.0177929459        0.1752561360
 H         -5.0886146725        3.6823758077       -1.4040251365
 C         -3.8993197952        1.9923557205       -0.9535238555
 H         -3.7289619943        1.7018113220       -1.9965024403
 H         -3.0863305924        2.6883945127       -0.7126394402
 H         -7.0780327799       -0.7737037402        0.4931262824
 H         -7.7765851641        0.8394053242        0.6704937587
 H         -5.9112151715        0.1698439436        2.2917759547
 H         -5.7337614904        1.7432386371        1.5261348226
 O         -4.0129057246       -0.8976431509        1.5246940969
 C         -2.8333338028       -1.5554726853        1.2514954617
 O         -2.6379259170       -2.5698912104        1.9505210300
 H          0.4143829774        0.5535964429       -0.5782815917
 C          0.9220562636        0.0638840851        0.2392593522
 C          0.4611069590       -1.1668704998        0.6847018047
 C          1.1130499854       -1.7752098025        1.7509667658
 C          2.1926166022       -1.1604452524        2.3614435880
 C          2.6449092122        0.0698837017        1.9200732072
 C          1.9995147972        0.6847732350        0.8544308093
 N          2.4521930886        1.9326941660        0.3941447522
 S          4.0993429864        2.1303135443        0.1853041282
 O          4.7128254428        2.4498581542        1.4509986917
 O          4.2386450377        3.1302640278       -0.8501891647
 C          4.6924005831        0.5464010045       -0.3853035367
 C          5.6571757021       -0.1264844920        0.3360533363
 C          6.0822205933       -1.3685411606       -0.1078907578
 C          5.5338431641       -1.9151204874       -1.2573866354
 C          4.5672461736       -1.2250383171       -1.9728881960
 C          4.1402523470        0.0178664125       -1.5354631139
 H          3.3916286409        0.5784395911       -2.0721994257
 H          4.1413443478       -1.6519644022       -2.8666047124
 H          5.8603161139       -2.8845054769       -1.5993051054
 H          6.8348663571       -1.9063624048        0.4457010859
 H          6.0522769497        0.3335399707        1.2271794882
 H          1.9299897991        2.2875303062       -0.3934900053
 H          3.4767518983        0.5687845716        2.3906248404
 H          2.6862423249       -1.6428500885        3.1911196416
 H          0.7565767837       -2.7295408114        2.1104589610
 C         -0.7160759330       -1.8356439183        0.0156464201
 H         -0.8737903052       -2.8031704722        0.5101566666
 C         -0.4386650888       -2.0893014584       -1.4540760051
 C          0.4874240917       -3.2028636047       -1.8358399186
 C         -0.9830354102       -3.3271334999       -2.0979739753
 H         -1.3354324827       -3.2654503960       -3.1167870349
 H         -1.5578478738       -4.0010796917       -1.4791634218
 H          0.9122120930       -3.7950314675       -1.0397198502
 H          1.1469695766       -3.0574030681       -2.6772134219
 H         -0.4194115351       -1.1878533151       -2.0515276904
 O         -1.6262181685        0.6383096673       -1.3655079481
