  62
        -98.93708958
 C         -1.8398082591       -1.0900118855       -0.2014997628
 C         -2.3785677363        0.1062541150       -0.7311796316
 C         -3.8397484282        0.2544728609       -0.6273804849
 C         -4.5633667307       -0.7346570194       -0.0720981029
 C         -6.0449322092       -0.6990076832        0.1745367698
 C         -6.3510110760        0.1647623890        1.4148339008
 C         -7.1406357355        1.4392167452        1.1160187991
 H         -8.1850207259        1.1757645739        0.9360971267
 H         -7.1076672286        2.0620918565        2.0124407963
 C         -6.6527534791        2.2617770038       -0.0805575676
 H         -7.1251812826        3.2435117412       -0.0050734783
 H         -7.0150945199        1.8133384440       -1.0068203183
 C         -5.1344584567        2.4536500136       -0.1899775576
 H         -4.9446056517        3.4738742675       -0.5298142466
 H         -4.6612689071        2.3523690536        0.7869813060
 C         -4.4396542659        1.5124085579       -1.1918696431
 H         -5.1351447686        1.2576096557       -1.9965380282
 H         -3.5963878721        2.0441455475       -1.6430446521
 H         -5.4041109914        0.4259227236        1.8919710194
 H         -6.9153037784       -0.4249155525        2.1388274573
 H         -6.5542927534       -0.3050843620       -0.7020220619
 H         -6.3719629312       -1.7262217887        0.3368271235
 O         -4.0077228117       -1.8759147514        0.4122998865
 C         -2.6390105268       -2.0815729185        0.3660171227
 O         -2.2622884108       -3.1645870418        0.8573110804
 H          1.7686428573        0.2168130446       -1.1767139301
 C          1.4412492033        0.4734501114       -0.1837683881
 C          0.3920240057       -0.2034719903        0.4165370874
 C          0.0000225601        0.1768416289        1.6983703273
 C          0.6240687164        1.2229423438        2.3480012839
 C          1.6646959248        1.9041977328        1.7402449757
 C          2.0715380090        1.5269362926        0.4671971216
 N          3.1172535773        2.2081422466       -0.1765897744
 S          4.3099365494        1.3522655357       -0.9750206682
 O          5.3991230777        2.2938282785       -1.1132925237
 O          3.7971824156        0.7895855968       -2.1973317421
 C          4.7616441107        0.0595702260        0.1672632212
 C          5.5328484644        0.3990756360        1.2620266910
 C          5.8397246933       -0.5774648353        2.1950334605
 C          5.3655477807       -1.8692795677        2.0225129996
 C          4.5949076036       -2.1941965797        0.9172149815
 C          4.2873575681       -1.2219800945       -0.0216852243
 H          3.6943081526       -1.4364057823       -0.8951891084
 H          4.2293575790       -3.1999533217        0.7833478225
 H          5.5998689609       -2.6286164967        2.7518222820
 H          6.4434852689       -0.3299078322        3.0532158104
 H          5.8915393364        1.4114144483        1.3541731526
 H          3.5159954095        2.9631154284        0.3620366268
 H          2.1480686888        2.7286962681        2.2418826181
 H          0.3007327282        1.5115426941        3.3368331541
 H         -0.8148968545       -0.3545255472        2.1716650056
 C         -0.3423254706       -1.3368376665       -0.2566331245
 H         -0.1659857150       -2.2542126747        0.3239547469
 C          0.0891588406       -1.5783010996       -1.6878949030
 C          1.2402203922       -2.4893232182       -1.9863233969
 C         -0.1593343222       -2.9212683126       -2.3036118943
 H         -0.4674114768       -2.9653704633       -3.3374817993
 H         -0.6163110884       -3.6749423027       -1.6786163637
 H          1.7283805434       -2.9638056293       -1.1482586795
 H          1.9006783077       -2.2354516254       -2.8026332958
 H         -0.0532211832       -0.7096740499       -2.3211623946
 O         -1.6781017070        1.0065587288       -1.2639809018
