  62
        -98.93338005
 C         -2.6245512913       -1.2751588437       -0.3073841533
 C         -2.5162383804       -0.0027668956       -0.9146445686
 C         -3.7090781456        0.8626783272       -0.8446820236
 C         -4.8149367183        0.4212552990       -0.2176410752
 C         -6.1745553997        1.0601813295       -0.0250804751
 C         -6.3789473947        2.5525722556       -0.2728302445
 C         -5.6528900467        3.4708166817        0.7098650564
 H         -5.7887881186        4.5021818642        0.3771468785
 H         -6.1251631065        3.3729780787        1.6906428784
 C         -4.1610871153        3.1998028725        0.8895343691
 H         -3.7751684251        3.9215227918        1.6147356232
 H         -4.0166245719        2.2066278362        1.3203197836
 C         -3.3160956948        3.3183937147       -0.3773402538
 H         -2.2663081685        3.2543423570       -0.0779585846
 H         -3.4752083146        4.2967080055       -0.8350079189
 C         -3.5598960945        2.2329983167       -1.4400383496
 H         -4.4146306285        2.4759651254       -2.0664345439
 H         -2.6786659995        2.1914709292       -2.0866687407
 H         -6.1147931375        2.8045085737       -1.2955997143
 H         -7.4510147890        2.7403344709       -0.1677967719
 H         -6.8587257487        0.5049156673       -0.6762941639
 H         -6.4695969261        0.8245857545        1.0023862767
 O         -4.8721929132       -0.8204020033        0.3491569382
 C         -3.7920659419       -1.6818524512        0.3381930348
 O         -3.9931079996       -2.7648400971        0.9242776282
 H          0.8825098937       -0.9419912680       -0.9872438513
 C          0.7442003495       -0.9995529761        0.0807779171
 C         -0.3747020851       -1.6336544689        0.5957344581
 C         -0.5391508915       -1.6792290027        1.9776604463
 C          0.3924430185       -1.1009740888        2.8184909852
 C          1.5013774906       -0.4542641130        2.3005412237
 C          1.6717499905       -0.3983006835        0.9241158454
 N          2.7746138013        0.2900407394        0.3829584908
 S          4.2960756792       -0.0215058935        1.0442560052
 O          4.5401953894       -1.4471628237        1.0835582192
 O          4.4007450371        0.6674351505        2.3058814901
 C          5.3525774835        0.7589585421       -0.1592931262
 C          5.5649821203        2.1214755470       -0.0703022177
 C          6.3650021048        2.7375702143       -1.0192863808
 C          6.9355646957        1.9855308541       -2.0355323268
 C          6.7146802356        0.6185438175       -2.1105813664
 C          5.9140464026       -0.0036884082       -1.1656265495
 H          5.7233571201       -1.0649136322       -1.1796821700
 H          7.1626425645        0.0363096215       -2.8997115317
 H          7.5591591864        2.4672976321       -2.7719797126
 H          6.5412686661        3.7996719756       -0.9633804956
 H          5.1095670687        2.6631459843        0.7421259045
 H          2.8024813268        0.2138814012       -0.6250493713
 H          2.2351486149        0.0017793988        2.9451071772
 H          0.2545981613       -1.1490536075        3.8885561134
 H         -1.4141430632       -2.1704970667        2.3819338839
 C         -1.4465302112       -2.2358345346       -0.2806350703
 H         -1.8128728761       -3.1465625770        0.2122751386
 C         -0.9792043685       -2.5922548197       -1.6758195163
 C         -0.0766968616       -3.7728969714       -1.8679237114
 C         -1.5024487602       -3.8365135205       -2.3250095702
 H         -1.7058569443       -3.8175694699       -3.3851993254
 H         -2.1954754380       -4.4417958657       -1.7589538931
 H          0.7000373001       -3.7146701419       -2.6151404359
 H          0.2010379206       -4.3350469481       -0.9888379176
 H         -0.8310303815       -1.7283459398       -2.3115607142
 O         -1.4810453202        0.4028321169       -1.5044121929
