  62
        -98.93430829
 C         -2.3214083082        0.1663481096       -0.1395105012
 C         -3.4246997102        0.3394244876       -1.0042394447
 C         -4.7186810164       -0.2107055588       -0.5561183961
 C         -4.7746783344       -0.8422677772        0.6316139142
 C         -5.9759989775       -1.4465724019        1.3091948898
 C         -6.9030087995       -0.3889460811        1.9294251357
 C         -7.1804074482        0.8221118934        1.0428156087
 H         -7.7574862130        1.5395611849        1.6322080042
 H         -6.2343294460        1.3019062153        0.7856443136
 C         -7.9650595482        0.5281801961       -0.2335585648
 H         -8.1723342656        1.4876199348       -0.7143834095
 H         -8.9234256492        0.0757934495        0.0308090159
 C         -7.2671409250       -0.3722269702       -1.2551772355
 H         -7.8187509718       -0.2854339872       -2.1958546535
 H         -7.3216964717       -1.4169407697       -0.9612454452
 C         -5.8233581610        0.0133850159       -1.5608981198
 H         -5.5054692794       -0.5151359089       -2.4679003390
 H         -5.7829543751        1.0772153597       -1.8214226413
 H         -6.4353844950       -0.0279221584        2.8486581322
 H         -7.8449205812       -0.8709159483        2.1967354285
 H         -5.5946602304       -2.0859996847        2.1083107384
 H         -6.5201034960       -2.0767299998        0.6119842293
 O         -3.6799858012       -0.9862839639        1.4338361216
 C         -2.4360483842       -0.4985018649        1.0802645308
 O         -1.5371360974       -0.7174125184        1.9146829722
 O         -3.3392416044        0.9304768103       -2.1157254931
 C         -0.9696532227        0.7145269350       -0.5518586627
 C          0.0625907244       -0.3839112391       -0.6232847286
 C         -0.2692802083       -1.5949156994       -1.2263508276
 C          0.6596175342       -2.6115832171       -1.3300270050
 C          1.9489365875       -2.4362587103       -0.8585584384
 C          2.2933675970       -1.2300350130       -0.2623087224
 C          1.3512279628       -0.2171257639       -0.1421972760
 H          1.6493421662        0.7053809848        0.3271727060
 N          3.5895425720       -1.0158336557        0.2335778656
 S          4.2567596204        0.5264383283        0.0575341291
 O          3.8616464723        1.3396224406        1.1797890699
 O          3.9478085620        1.0507691291       -1.2533555897
 C          5.9960863680        0.1460710241        0.1717024496
 C          6.7143927249       -0.0699085558       -0.9895220903
 C          8.0588932891       -0.3930015125       -0.8962744395
 C          8.6587811620       -0.4970118037        0.3497848745
 C          7.9253779104       -0.2765369336        1.5062214640
 C          6.5806986036        0.0478188532        1.4201899129
 H          5.9732700485        0.2365243587        2.2900576883
 H          8.3959772882       -0.3550265780        2.4729590074
 H          9.7052799136       -0.7483457364        0.4199119756
 H          8.6324518650       -0.5610652900       -1.7935303933
 H          6.2085564431        0.0320347675       -1.9362341775
 H          4.2402005157       -1.7402677190       -0.0378079395
 H          2.6777133070       -3.2276626950       -0.9466343552
 H          0.3817104887       -3.5465905313       -1.7931408172
 H         -1.2715422569       -1.7288409071       -1.6107480605
 H         -1.1109879017        1.1093646438       -1.5702268465
 C         -0.5658793746        1.8569763321        0.3567150582
 C          0.3150613907        2.9566106864       -0.1537490168
 C         -1.1352603510        3.2213464275        0.1137511015
 H         -1.4011828667        3.8289466110        0.9656055014
 H         -1.7974034332        3.3374084561       -0.7319074012
 H          1.0531973549        3.3757501963        0.5143353910
 H          0.6442425186        2.8974445590       -1.1806961524
 H         -0.4404581068        1.5421989462        1.3874911347
