  62
        -98.93903502
 C          1.5021160164        0.7686041701       -0.3465313896
 C          2.7924854302        1.3408743089       -0.3560051547
 C          3.9346873339        0.4079426332       -0.4247668515
 C          3.6865294592       -0.9142917541       -0.4770870882
 C          4.6803598623       -2.0449129852       -0.5083570182
 C          5.3165585573       -2.3125388196        0.8656245497
 C          5.7366894811       -1.0630532342        1.6353951406
 H          4.8683983956       -0.4151268629        1.7685982013
 H          6.0605761541       -1.3789324177        2.6306940131
 C          6.8750169006       -0.2628347353        1.0069738917
 H          7.7562387241       -0.9022750538        0.9182010749
 H          7.1220898678        0.5478409396        1.6974298173
 C          6.5823659669        0.3529712280       -0.3626160163
 H          7.3773150322        1.0751877585       -0.5710475119
 H          6.6338076783       -0.3963027861       -1.1479557353
 C          5.2661485886        1.1195394174       -0.4491942337
 H          5.2278427533        1.8574606016        0.3604569554
 H          5.2677171393        1.7093858292       -1.3740837552
 H          4.5859336350       -2.8479979435        1.4766607416
 H          6.1809511044       -2.9637073710        0.7252237315
 H          5.4421270019       -1.8514823423       -1.2577305648
 H          4.1305386798       -2.9371273977       -0.8154362930
 O          2.4203511100       -1.4212131053       -0.4652448508
 C          1.3011101572       -0.6105121009       -0.4010868805
 O          0.2169791630       -1.2203033045       -0.3994061587
 O          2.9927525912        2.5854556357       -0.2981537237
 C          0.2871256919        1.6744912124       -0.2860276992
 C         -0.5909117242        1.2937885945        0.8793279831
 C         -0.0123705786        1.0913064385        2.1301463559
 C         -0.7830368287        0.7175619105        3.2131590397
 C         -2.1468634590        0.5266245732        3.0726198019
 C         -2.7367950892        0.7432324858        1.8340069255
 C         -1.9617555089        1.1388344862        0.7516514311
 H         -2.4497353554        1.3253562456       -0.1891631414
 N         -4.1165114974        0.5776153634        1.6627537081
 S         -4.7597757337        0.1300282250        0.1902885170
 O         -4.7923796551        1.2636430722       -0.7002992493
 O         -6.0501382273       -0.4331195443        0.5287802470
 C         -3.7035358409       -1.1433228783       -0.4751435276
 C         -3.2234528631       -1.0187959937       -1.7620179853
 C         -2.4261430723       -2.0247084709       -2.2813873214
 C         -2.1216967339       -3.1317892654       -1.5071417546
 C         -2.6134818852       -3.2436238969       -0.2169191241
 C         -3.4137160047       -2.2425698446        0.3067583179
 H         -3.8118625738       -2.3058166485        1.3066873115
 H         -2.3677385712       -4.1043372251        0.3841605959
 H         -1.4907166762       -3.9082172813       -1.9097551394
 H         -2.0363972659       -1.9371478751       -3.2834861832
 H         -3.4772892092       -0.1362847758       -2.3285022166
 H         -4.6048360312        0.1594763059        2.4400138587
 H         -2.7485268182        0.2190483026        3.9140274701
 H         -0.3180381281        0.5613741905        4.1750029094
 H          1.0554568869        1.2242161033        2.2389552547
 H          0.6791679899        2.6880002265       -0.1132161564
 C         -0.4412781047        1.6504302488       -1.6137298052
 C         -1.2375024578        2.8374005296       -2.0640523008
 C          0.0575355198        2.5030168492       -2.7399646536
 H          0.0302068051        2.1025445289       -3.7422372835
 H          0.9140547091        3.1315044460       -2.5440263573
 H         -2.1619202534        2.6692559648       -2.5966906636
 H         -1.2622571702        3.6983317730       -1.4129823782
 H         -0.8127973361        0.6613616215       -1.8602644930
