  62
        -98.94415018
 C          2.2355201729        0.8290329538        0.4348657889
 C          2.4759176647        0.0401651185       -0.7164162292
 C          3.3468333249       -1.1253447384       -0.5159290659
 C          3.8159056572       -1.4083913346        0.7128272279
 C          4.6960168995       -2.5727899500        1.0786913482
 C          6.1908178986       -2.3256216839        0.8325513523
 C          6.6163844032       -2.3199912722       -0.6362501013
 H          7.7074683198       -2.3555168331       -0.6530657393
 H          6.2537958709       -3.2266737044       -1.1214722581
 C          6.1505928577       -1.0889252410       -1.4262631404
 H          5.8581227164       -0.2989378259       -0.7306481666
 H          6.9820245913       -0.7010221239       -2.0190186634
 C          4.9928499606       -1.3539072281       -2.3888406661
 H          5.3168425548       -2.0446809870       -3.1703060868
 H          4.7208244920       -0.4089783385       -2.8657411181
 C          3.7352023696       -1.9263504115       -1.7218049552
 H          2.9104838134       -1.8693427759       -2.4364004656
 H          3.8940663238       -2.9701898078       -1.4520609193
 H          6.4684923063       -1.3762633116        1.2964118326
 H          6.7402332991       -3.1186767338        1.3450801367
 H          4.5477803887       -2.7513496545        2.1460188730
 H          4.3774651059       -3.4600363840        0.5307089458
 O          3.5145362741       -0.6540992761        1.8047801796
 C          2.7373308259        0.4879075789        1.6897083917
 O          2.5556182144        1.0966350550        2.7652978295
 H         -0.1238231365        0.0462048609        1.1596222744
 C         -0.6463135025        0.6314679783        0.4114040624
 C         -0.0084498518        1.7304345660       -0.1511555964
 C         -0.6981049863        2.4820012968       -1.0933574908
 C         -1.9815389171        2.1263947941       -1.4713376774
 C         -2.6045259937        1.0218759712       -0.9210029773
 C         -1.9288761779        0.2695504042        0.0311101973
 N         -2.5553536012       -0.8597227829        0.5937277531
 S         -4.0361793742       -0.6130758846        1.3521359453
 O         -4.1332789491        0.7225082868        1.8953508783
 O         -4.1650330004       -1.7018029341        2.2963577866
 C         -5.2291955639       -0.8293157569        0.0486597868
 C         -6.1258084047        0.1815719059       -0.2372942815
 C         -7.0518156427       -0.0116680453       -1.2507041408
 C         -7.0646496561       -1.2055883791       -1.9554647175
 C         -6.1588559837       -2.2118939689       -1.6538241425
 C         -5.2314687403       -2.0259504878       -0.6411004009
 H         -4.5128954185       -2.7825302412       -0.3731712794
 H         -6.1715105098       -3.1386678588       -2.2045116757
 H         -7.7848293806       -1.3531174475       -2.7446726796
 H         -7.7573065265        0.7688645111       -1.4860495863
 H         -6.0731737531        1.0947777061        0.3335531568
 H         -1.9466035584       -1.3946981467        1.1967362995
 H         -3.6003096478        0.7372299320       -1.2190463104
 H         -2.5025841018        2.7168908430       -2.2092549083
 H         -0.2296470604        3.3464315162       -1.5342601797
 C          1.3809601143        2.0780909370        0.3280932313
 H          1.2918869477        2.4744487888        1.3510535695
 C          2.0772067330        3.1098653426       -0.5356923800
 C          1.8810555350        4.5725185461       -0.2771839697
 C          3.1862603469        3.9198346429        0.0630511599
 H          4.0505597280        4.1415433064       -0.5448033189
 H          3.4181868576        3.7475666583        1.1045111880
 H          1.8525503729        5.2463893524       -1.1201428140
 H          1.2296940491        4.8542291815        0.5364801564
 H          2.1959113040        2.7797695929       -1.5611854093
 O          1.9893722514        0.2911347680       -1.8484516350
