  62
        -98.94368812
 C         -1.0984810181       -1.6511077443       -0.4834408166
 C          0.0555041686       -1.3858853918       -1.2561007040
 C          1.2892414017       -2.0851261677       -0.8594672352
 C          1.2642635432       -2.8908187588        0.2158900064
 C          2.4054135075       -3.6812719509        0.7958077042
 C          3.1027550756       -2.8991768995        1.9212234218
 C          4.2241092066       -1.9747032855        1.4521116994
 H          5.0706946226       -2.5756449890        1.1121117369
 H          4.5545938339       -1.3973792819        2.3187623288
 C          3.8249547864       -1.0007920447        0.3404905115
 H          4.5254456629       -0.1621220949        0.3647393958
 H          2.8340865312       -0.5984613191        0.5650313299
 C          3.8543324654       -1.6346931788       -1.0593961976
 H          4.3769656101       -2.5895940718       -1.0005852660
 H          4.4433196005       -1.0017233553       -1.7268333063
 C          2.4886583489       -1.8392154151       -1.7334532828
 H          2.5692791434       -2.6627330874       -2.4513099801
 H          2.2267785706       -0.9473840025       -2.3113463840
 H          3.5216048465       -3.6088920995        2.6379221474
 H          2.3436871691       -2.3107467634        2.4441142511
 H          3.1108832254       -3.9632351022        0.0193630807
 H          1.9686797809       -4.5875634821        1.2209312929
 O          0.1463573727       -3.0692911669        0.9713466378
 C         -1.0480196880       -2.4402860743        0.6644320439
 O         -1.9703903573       -2.6750160750        1.4692735569
 O          0.0542448108       -0.6002652466       -2.2430628209
 C         -2.3963539536       -0.9440374104       -0.8415553425
 C         -2.6623656118        0.0896037499        0.2242617757
 C         -3.8015477905        0.1336143536        1.0151810173
 C         -3.9087462616        1.0756872537        2.0250602052
 C         -2.8863255980        1.9723515311        2.2755443819
 C         -1.7473775692        1.9438823374        1.4770072769
 C         -1.6606502485        1.0270603086        0.4447490241
 H         -0.7777277492        1.0039456331       -0.1762308992
 N         -0.6881436387        2.8391638537        1.6799371876
 S          0.8725756266        2.3874641627        1.2776648395
 O          1.1190896662        0.9876132299        1.5383825327
 O          1.7100740868        3.3158561465        2.0112613598
 C          1.0077241582        2.7539449605       -0.4596032998
 C          0.2678119735        3.7927712030       -0.9890952549
 C          0.4060530172        4.0938109920       -2.3343316548
 C          1.2806312751        3.3612768162       -3.1221850402
 C          2.0223264979        2.3279498666       -2.5731413839
 C          1.8875220066        2.0204847191       -1.2290017384
 H          2.4365102576        1.2145788288       -0.7704216863
 H          2.6990403313        1.7540621195       -3.1858598711
 H          1.3830520625        3.5936791936       -4.1705185116
 H         -0.1713927956        4.8962796257       -2.7646901270
 H         -0.4081753031        4.3374562013       -0.3512889550
 H         -0.7312931846        3.3876044465        2.5257716156
 H         -2.9622788961        2.6847096803        3.0828181266
 H         -4.7954763060        1.0981592965        2.6404476416
 H         -4.5947957644       -0.5779616486        0.8560953037
 H         -2.1899823097       -0.4166120595       -1.7842356753
 C         -3.5298909048       -1.9202445080       -1.0604107580
 C         -4.7111806378       -1.5138111783       -1.8886527247
 C         -3.7288148830       -2.5108860643       -2.4230622248
 H         -4.0290622004       -3.5453058150       -2.4963866976
 H         -3.0534299943       -2.1963229899       -3.2051716242
 H         -5.6897986382       -1.8643492400       -1.5979832617
 H         -4.7052805266       -0.5205135809       -2.3109248556
 H         -3.6992661641       -2.5663635250       -0.2071580369
