  62
        -98.93876865
 C          1.9191739144        0.9100179990       -0.3638972766
 C          2.9961122919        1.2668377087        0.4823791179
 C          4.3163668661        0.7123211275        0.1385758098
 C          4.4252798544       -0.0942140143       -0.9314726109
 C          5.6556565245       -0.8096513119       -1.4165639712
 C          5.7228715685       -2.2310811477       -0.8323998633
 C          6.4038613065       -2.3363163578        0.5317173703
 H          6.2670926195       -3.3612699543        0.8842840774
 H          7.4767432894       -2.1724373849        0.4105121859
 C          5.8800022321       -1.3745752947        1.6014695026
 H          4.7896601740       -1.3390603696        1.5616751423
 H          6.1540949723       -1.7791854381        2.5777806194
 C          6.4556547003        0.0435417624        1.4719704805
 H          7.2960144372        0.0244332264        0.7782918571
 H          6.8582785117        0.3594031304        2.4366193390
 C          5.4513027828        1.1212002898        1.0375528037
 H          4.9643418173        1.5416552144        1.9229772297
 H          5.9949229651        1.9434866905        0.5605651037
 H          4.7012089794       -2.6141927164       -0.7646159841
 H          6.2652926599       -2.8716842066       -1.5307876138
 H          5.5645369721       -0.8843202368       -2.5022192089
 H          6.5511142269       -0.2434099732       -1.1782918078
 O          3.3615874463       -0.4183337668       -1.7162823425
 C          2.0887768594        0.0619258409       -1.4577543048
 O          1.2233289472       -0.3276219066       -2.2647769373
 O          2.8588539527        2.0139140371        1.4879845998
 C          0.5358154324        1.4442173653       -0.0324534398
 C         -0.3333608836        0.2892250593        0.3964240780
 C         -0.1627780561       -0.2497715049        1.6688242426
 C         -0.9216148430       -1.3251464502        2.0908469067
 C         -1.8666940268       -1.8891249621        1.2507838244
 C         -2.0383284828       -1.3627305844       -0.0214697578
 C         -1.2830024992       -0.2755635479       -0.4401823804
 H         -1.4219179081        0.1140632749       -1.4361433078
 N         -3.0162251752       -1.9234451102       -0.8732251206
 S         -4.5958554982       -1.7501460656       -0.3385854061
 O         -4.8198291218       -2.6450025377        0.7680532378
 O         -5.4308869497       -1.9490772270       -1.5013722094
 C         -4.6797328335       -0.0566903418        0.2144868928
 C         -4.8843136325        0.9329689266       -0.7262787087
 C         -4.8557930963        2.2576955684       -0.3226937382
 C         -4.6096723581        2.5684748697        1.0059463046
 C         -4.4049816705        1.5631517358        1.9380707936
 C         -4.4388411018        0.2358325616        1.5416503468
 H         -4.2879781179       -0.5744590448        2.2355674710
 H         -4.2139105450        1.8077433729        2.9705687589
 H         -4.5786683603        3.6011808641        1.3160984231
 H         -5.0189462221        3.0428712721       -1.0433416011
 H         -5.0748551032        0.6491303760       -1.7490160844
 H         -2.9400505922       -1.5932752035       -1.8251870342
 H         -2.4769015663       -2.7217140090        1.5620513063
 H         -0.7774258967       -1.7298131808        3.0811814559
 H          0.5806173836        0.1859772723        2.3218836132
 H          0.6807653253        2.1008346827        0.8360127111
 C         -0.0490056904        2.2570680618       -1.1681731607
 C         -1.2646086574        3.0970061043       -0.9151738065
 C          0.0654850471        3.7502908966       -1.1373512532
 H          0.2364503710        4.2718131505       -2.0671963606
 H          0.5663549527        4.1949771795       -0.2901699518
 H         -2.0101487681        3.1714021138       -1.6918142375
 H         -1.6714062218        3.0923490035        0.0846143015
 H          0.0436176945        1.7728330646       -2.1330489243
