  62
        -98.94371319
 C          1.2645848471        0.8744818548        0.1733998711
 C          1.7287215599       -0.2266982045        0.9361423333
 C          2.7703712585       -1.0509790087        0.3150299736
 C          3.1528892178       -0.7969828159       -0.9489571464
 C          4.1827163184       -1.5630378640       -1.7341283955
 C          5.6279475787       -1.1212452845       -1.4649472435
 C          6.1928623736       -1.5355251528       -0.1055385591
 H          7.2691906376       -1.3555398809       -0.1381788297
 H          6.0457735261       -2.6067626317        0.0355955185
 C          5.6007083265       -0.7709025064        1.0865679583
 H          5.1043323357        0.1336226174        0.7272792272
 H          6.4066602252       -0.4512542277        1.7508191275
 C          4.6119659898       -1.5769527560        1.9291752991
 H          4.2302863212       -0.9293082080        2.7226149458
 H          5.1298495002       -2.4158574886        2.3990710392
 C          3.4116373414       -2.1224547624        1.1438680323
 H          2.6656498693       -2.4815770946        1.8573161584
 H          3.7196969332       -2.9571582193        0.5141150166
 H          5.6856180640       -0.0351791511       -1.5686118003
 H          6.2531874542       -1.5628367741       -2.2443575295
 H          4.0806178892       -2.6293338918       -1.5290186283
 H          3.9589791354       -1.3909349955       -2.7893395071
 O          2.6092035667        0.2057372222       -1.6873662450
 C          1.6635268769        1.0711009741       -1.1494789949
 O          1.2705296072        1.9422001535       -1.9476783996
 H         -1.0106552749       -0.2135562955       -0.4551596230
 C         -1.4992797355        0.7263505122       -0.6619656874
 C         -0.9776219638        1.8973189863       -0.1275633347
 C         -1.5914584271        3.1008019303       -0.4473517041
 C         -2.6939731215        3.1200040960       -1.2849047803
 C         -3.2202802107        1.9495186514       -1.7994684295
 C         -2.6099231680        0.7395188755       -1.4876073331
 N         -3.1033061717       -0.4755553846       -1.9854517304
 S         -2.9899043618       -1.8554012764       -1.0514549675
 O         -1.6429654278       -2.3705639193       -1.0685127309
 O         -4.0053116060       -2.7344700659       -1.5921162935
 C         -3.4541266660       -1.3369138175        0.5920374892
 C         -2.5284985554       -1.3156520532        1.6148138857
 C         -2.9203569734       -0.8576598307        2.8632836718
 C         -4.2236259479       -0.4330492924        3.0674596372
 C         -5.1457163089       -0.4701500290        2.0321641692
 C         -4.7588948859       -0.9232842029        0.7821243430
 H         -5.4489537421       -0.9759241528       -0.0441719664
 H         -6.1602781468       -0.1442988678        2.1949102051
 H         -4.5212936994       -0.0736105133        4.0397949827
 H         -2.1971153912       -0.8301070361        3.6629138916
 H         -1.5181891763       -1.6465646151        1.4292935537
 H         -3.9802966955       -0.4152723316       -2.4806243705
 H         -4.0824395721        1.9685149314       -2.4481261913
 H         -3.1552517027        4.0630084061       -1.5359255478
 H         -1.1963302624        4.0259180259       -0.0615469187
 C          0.2061169802        1.7644316968        0.7976123537
 H         -0.1347351976        1.1923013466        1.6783742641
 C          0.7254174793        3.0934976716        1.3258609537
 C          2.1776456662        3.2886512175        1.6416298025
 C          1.5565110382        4.0194561875        0.4910572475
 H          1.3942279302        5.0829314841        0.5896949677
 H          1.7975748799        3.7038176261       -0.5115039912
 H          2.8517271358        2.4727520563        1.4227503671
 H          2.4405087449        3.8461287659        2.5282455678
 H          0.0242741534        3.5582317029        2.0120691800
 O          1.2865876401       -0.5099402182        2.0819607150
