  62
        -98.93572036
 C         -1.6941571778       -0.2372192597        0.4116629773
 C         -2.7956762192       -1.0156176241        0.8470871899
 C         -4.1259206466       -0.3879314188        0.7708342591
 C         -4.2205203329        0.8838578699        0.3471711325
 C         -5.4729850312        1.6897677048        0.1402383190
 C         -5.9515155767        1.5827435218       -1.3176949386
 C         -6.8664061200        0.3940183380       -1.6102161323
 H         -7.8385213476        0.5668579392       -1.1437016932
 H         -7.0228061136        0.3632509499       -2.6910069319
 C         -6.3388544309       -0.9678282011       -1.1507844437
 H         -6.8601370176       -1.7385172569       -1.7219784468
 H         -5.2774007452       -1.0507875647       -1.3917535801
 C         -6.5577178615       -1.2263256969        0.3474125117
 H         -7.2490045202       -0.4804628052        0.7393056758
 H         -7.0416561949       -2.1962419446        0.4793531810
 C         -5.2822518669       -1.2479176667        1.2030834077
 H         -4.8772375261       -2.2644464737        1.2280163724
 H         -5.5414849153       -0.9908654819        2.2355356560
 H         -6.4905364086        2.4961001802       -1.5776898256
 H         -5.0667004989        1.5335630837       -1.9579521510
 H         -6.2500837993        1.3808691408        0.8330750013
 H         -5.2108176816        2.7299405400        0.3447963975
 O         -3.1317697386        1.6168608510       -0.0105461115
 C         -1.8477735184        1.0893322623        0.0063735506
 O         -0.9703930332        1.8978036605       -0.3477948478
 O         -2.6732692022       -2.1923949234        1.2808469064
 C         -0.3210925763       -0.8835732363        0.4584469623
 C          0.6835647330        0.0447485229        1.0898609485
 C          0.5636457185        0.3430089043        2.4450528720
 C          1.4555280035        1.1981665182        3.0617456645
 C          2.5003294447        1.7566402712        2.3458575995
 C          2.6271111687        1.4672754478        0.9930715066
 C          1.7219223362        0.6163265085        0.3728292278
 H          1.8133278892        0.4483736259       -0.6864776242
 N          3.6730222411        2.0165826706        0.2408313091
 S          4.3580500188        1.1571845461       -1.0115293724
 O          5.6942176998        1.7029521557       -1.1303383758
 O          3.5456661711        1.2356632162       -2.1991272461
 C          4.4436375918       -0.5331971824       -0.4428287405
 C          3.9074600888       -1.5399911170       -1.2189647671
 C          3.9789271391       -2.8483040070       -0.7671499953
 C          4.5806984993       -3.1253639685        0.4502948771
 C          5.1205388260       -2.1036755973        1.2165256597
 C          5.0550460410       -0.7948294538        0.7674240076
 H          5.4729458889        0.0187261870        1.3373528678
 H          5.5902443790       -2.3231100247        2.1616975226
 H          4.6298937676       -4.1436208783        0.8024092102
 H          3.5616411254       -3.6440795798       -1.3637573183
 H          3.4417835231       -1.2786117086       -2.1559598074
 H          4.3498091980        2.5540977396        0.7606841703
 H          3.2007116001        2.4236282893        2.8249818836
 H          1.3439588968        1.4273837585        4.1107799604
 H         -0.2503652246       -0.0964562377        3.0053434014
 H         -0.4520012818       -1.7479570775        1.1306300632
 C          0.1522344652       -1.4416277617       -0.8751400344
 C         -0.8189816946       -1.9865183315       -1.8776632945
 C         -0.0672006623       -0.7246212066       -2.1720053046
 H          0.7196309032       -0.7474432125       -2.9126114578
 H         -0.5981842452        0.2143272266       -2.1431195645
 H         -0.5539519556       -2.8833118549       -2.4168663246
 H         -1.8716418487       -1.9102611117       -1.6471235849
 H          1.0905987510       -1.9784891886       -0.7717968034
