  62
        -98.94666510
 C         -1.4972257394       -1.6248017900       -0.1079251608
 C         -1.5905200594       -0.5401299497       -1.0154357503
 C         -2.8772478394        0.1712374303       -1.0310448501
 C         -3.8901684694       -0.2413466400       -0.2494189203
 C         -5.2709720694        0.3541928399       -0.1918225001
 C         -5.3955704895        1.5644226195        0.7431380904
 C         -4.7321166995        2.8454614098        0.2363483710
 H         -5.0799498895        3.0591978802       -0.7748706490
 H         -5.0732863495        3.6605353195        0.8777242413
 C         -3.1974091195        2.8109892098        0.2571373410
 H         -2.8559637895        2.0004949595        0.9058575407
 H         -2.8123622395        3.7384521096        0.6874592614
 C         -2.5416351394        2.6502271304       -1.1143871790
 H         -2.7557412894        3.5292925206       -1.7273413787
 H         -1.4597795794        2.6026092603       -0.9622380890
 C         -2.9837940794        1.3983939907       -1.8846213496
 H         -4.0035380594        1.5230581708       -2.2498740396
 H         -2.3173614294        1.2701746710       -2.7410575196
 H         -4.9765847695        1.2993199292        1.7166624403
 H         -6.4611570195        1.7617904995        0.8815358905
 H         -5.5893804194        0.6356161003       -1.1960178700
 H         -5.9324680194       -0.4334793702        0.1756776296
 O         -3.7742920294       -1.3072831404        0.5866041393
 C         -2.5782584094       -1.9948482404        0.6984107591
 O         -2.6041506694       -2.9247451307        1.5310381987
 H          0.4485975706        0.1683708098        0.3936655000
 C          0.9634857005       -0.4791380405        1.0838783998
 C          0.7092198906       -1.8423984105        1.0842696892
 C          1.3707293706       -2.6446626408        2.0079622389
 C          2.2636822605       -2.0936384112        2.9083472792
 C          2.5229569005       -0.7352301712        2.8977514097
 C          1.8638972205        0.0778712892        1.9822238301
 N          2.0914199605        1.4598511492        1.9691044706
 S          2.0971153505        2.3208128298        0.5338822110
 O          2.8237607405        3.5304345897        0.8633770915
 O          0.7527583305        2.5098090600        0.0570860210
 C          3.0685689706        1.3355246603       -0.5901274194
 C          4.4271384906        1.2630670302       -0.3461149394
 C          5.2179647606        0.4814069106       -1.1707583897
 C          4.6382794007       -0.2142517290       -2.2214754800
 C          3.2755638507       -0.1260387490       -2.4548893200
 C          2.4762141906        0.6554729807       -1.6333005497
 H          1.4108086406        0.7293603207       -1.7878986397
 H          2.8216566607       -0.6644582886       -3.2720520902
 H          5.2517133107       -0.8267266388       -2.8634147302
 H          6.2792665406        0.4151372805       -0.9932126297
 H          4.8407013405        1.8312028299        0.4713568909
 H          2.8164092204        1.7770526490        2.5953505108
 H          3.2184603505       -0.3014211214        3.5997707599
 H          2.7649835505       -2.7268709215        3.6242169689
 H          1.1667718906       -3.7046351708        2.0287066385
 C         -0.2442591894       -2.4611172801        0.0872516089
 H         -0.5886999894       -3.4153232603        0.5103733185
 C          0.4996050207       -2.7529335095       -1.2031424811
 C          1.3231380907       -3.9987315195       -1.3155653716
 C          0.0404320707       -3.8759272992       -2.0813342116
 H          0.0815020408       -3.7415177987       -3.1516345116
 H         -0.8103446193       -4.4532954993       -1.7485062619
 H          2.2539806907       -3.9507943092       -1.8590025116
 H          1.3414548707       -4.6699379498       -0.4706809019
 H          0.8676471007       -1.8603746393       -1.6897955108
 O         -0.6714507294       -0.1698148993       -1.7917973501
