  62
        -98.93928638
 C          2.1650822056        0.7395182217        0.5289985998
 C          1.9244491614       -0.0279202794       -0.6336921903
 C          1.8465223867       -1.4902526054       -0.4575507854
 C          2.0307070376       -2.0055128111        0.7718558094
 C          2.0421201497       -3.4579638659        1.1652401203
 C          3.3425166883       -4.1749139688        0.7558032178
 C          3.8989141789       -3.7847080618       -0.6121373374
 H          4.0238434198       -2.7009511630       -0.6513669668
 H          4.8930465765       -4.2296534034       -0.7056424843
 C          3.0694819448       -4.2428790675       -1.8092941411
 H          3.0433339418       -5.3349299202       -1.8277148593
 H          3.5837250114       -3.9058834985       -2.7127764814
 C          1.6298049247       -3.7308157397       -1.8571312072
 H          1.2193331142       -3.9973781116       -2.8357125782
 H          1.0164140344       -4.2375552631       -1.1168674636
 C          1.4759168102       -2.2178789604       -1.7259411379
 H          2.0436887256       -1.7282882059       -2.5252697270
 H          0.4248538114       -1.9547455174       -1.9060194154
 H          3.1687757452       -5.2515244671        0.7873038464
 H          4.1040132673       -3.9332262863        1.5008807278
 H          1.9524491467       -3.4909499968        2.2533429059
 H          1.1689558506       -3.9525932883        0.7486431547
 O          2.2983031447       -1.2277281202        1.8609036742
 C          2.3293397747        0.1507188156        1.7795865163
 O          2.5188431964        0.7320716782        2.8696404405
 H         -0.2706101884        1.2286346950        0.9043139278
 C         -0.3183120885        2.0356680823        0.1867111987
 C          0.8443924953        2.7050805831       -0.1729210542
 C          0.7519205426        3.7511238183       -1.0820811031
 C         -0.4695427517        4.0854985599       -1.6412024932
 C         -1.6142660880        3.3796218200       -1.3211669410
 C         -1.5352449552        2.3446431681       -0.3957236130
 N         -2.6804735472        1.6142624522       -0.0261975483
 S         -2.5019071348       -0.0357894387        0.2915971527
 O         -2.0053553137       -0.2020872966        1.6360577397
 O         -1.7463683837       -0.6798732541       -0.7586406572
 C         -4.2110736099       -0.5427206027        0.2243856025
 C         -5.0307668302       -0.2309439885        1.2928682235
 C         -6.3688812247       -0.5865840481        1.2368239762
 C         -6.8627053386       -1.2444089569        0.1197471139
 C         -6.0276545680       -1.5529787156       -0.9433358790
 C         -4.6883177456       -1.1982214803       -0.8944310530
 H         -3.9995969844       -1.4208735176       -1.6936569228
 H         -6.4129887954       -2.0671116116       -1.8089848230
 H         -7.9044968220       -1.5203140560        0.0786973229
 H         -7.0202293473       -0.3502968275        2.0626390293
 H         -4.5989395600        0.2722660461        2.1422319850
 H         -3.4583466999        1.7762705640       -0.6523598817
 H         -2.5599618665        3.6227108534       -1.7813323798
 H         -0.5264966118        4.8951313840       -2.3529252911
 H          1.6388400757        4.2945527789       -1.3644839174
 C          2.1472080729        2.2545560256        0.4450199601
 H          2.1847939560        2.6190241651        1.4828810054
 C          3.3679328633        2.7602474888       -0.2965680935
 C          3.9741293207        4.0857219893        0.0519431652
 C          4.6786322082        2.8176964934        0.4269256957
 H          5.5757550973        2.5448904919       -0.1081136353
 H          4.6810111181        2.5181581325        1.4651425295
 H          4.3930558178        4.6855052184       -0.7419671856
 H          3.5088689617        4.6566599978        0.8412313004
 H          3.3800742652        2.4440955541       -1.3334719181
 O          1.7843394956        0.4842367195       -1.7763197410
