  62
        -98.93788278
 C          2.3710086004        0.0346568700        0.4657700488
 C          3.3552651103        0.6785838693       -0.3237353919
 C          4.4637164802       -0.1725681311       -0.7795827314
 C          4.4759589502       -1.4841286009       -0.4845355403
 C          5.5251600900       -2.4790817213       -0.9003887996
 C          6.7558535802       -2.5084645606        0.0165847302
 C          7.6896544202       -1.3036688907       -0.1066706909
 H          8.6106616203       -1.5573700403        0.4220480792
 H          7.9480064401       -1.1512866016       -1.1550517111
 C          7.1261915204       -0.0023840902        0.4811920181
 H          6.2915085705       -0.2345310196        1.1466116284
 H          7.8927088205        0.4850573202        1.0879282276
 C          6.6593997903        1.0139546189       -0.5609352727
 H          7.5145415702        1.3565283284       -1.1478876731
 H          6.2439869804        1.8775664894       -0.0354627033
 C          5.5878265301        0.4845376482       -1.5227163221
 H          5.1717978101        1.3318485578       -2.0731853227
 H          6.0313719500       -0.2108851024       -2.2348556516
 H          7.3243581801       -3.4079142608       -0.2308982391
 H          6.4181581603       -2.6031882597        1.0512070104
 H          5.8378067599       -2.2758729721       -1.9250400398
 H          5.0499282400       -3.4619363012       -0.8703142487
 O          3.4871225602       -2.0764592002        0.2364563004
 C          2.4336801003       -1.3352192798        0.7407599599
 O          1.6208275804       -2.0006855292        1.4149730806
 O          3.3364369403        1.8956531990       -0.6450853929
 C          1.1766382805        0.7601306806        1.0663277783
 C          0.0756120704        0.9283976998        0.0456729484
 C          0.2261149202        1.7606848489       -1.0582183823
 C         -0.8014532999        1.9001077582       -1.9732599223
 C         -1.9946424699        1.2188168384       -1.8095886616
 C         -2.1553044698        0.3847585693       -0.7114821409
 C         -1.1231655997        0.2491923600        0.2090875791
 H         -1.2448671696       -0.4111161293        1.0576683497
 N         -3.3575854698       -0.3279028305       -0.5470397701
 S         -4.7957007798        0.5165085193       -0.8236047206
 O         -5.0468940100        0.5369532182       -2.2428349806
 O         -4.7446060096        1.8065768999       -0.1729363517
 C         -5.9811240097       -0.5409622499       -0.0168007895
 C         -6.3838656795       -0.2452232189        1.2716920603
 C         -7.2937858395       -1.0823144583        1.8980934411
 C         -7.7803371596       -2.1959288088        1.2300836821
 C         -7.3660290898       -2.4798612599       -0.0628609177
 C         -6.4575524499       -1.6464706405       -0.6956202185
 H         -6.1156720100       -1.8217596813       -1.7022381885
 H         -7.7486342800       -3.3453655403       -0.5792770870
 H         -8.4895451896       -2.8447339084        1.7193286427
 H         -7.6200624493       -0.8626772574        2.9019241110
 H         -5.9873018494        0.6366380915        1.7489983295
 H         -3.3888144797       -0.8222091598        0.3343408603
 H         -2.8039851300        1.3264427778       -2.5137828215
 H         -0.6730869400        2.5487405375       -2.8270711029
 H          1.1594529202        2.2831749287       -1.1998233529
 H          0.7984549706        0.0961624812        1.8554504889
 C          1.5430254707        2.0885089911        1.6991172072
 C          0.6279288508        2.6751584220        2.7295722868
 C          1.9608758309        2.1238012822        3.1368478971
 H          2.7382898010        2.8130530224        3.4302709464
 H          1.9828204309        1.1868997127        3.6747836879
 H          0.4864285109        3.7448681420        2.7431012160
 H         -0.2557970591        2.1129918922        2.9920204574
 H          2.0404708806        2.7681748305        1.0208247266
