  62
        -98.93589393
 C         -2.7175205020       -1.1310270838       -0.3232312267
 C         -2.4537106851        0.0307694428       -1.0894825654
 C         -3.3426742493        1.1781447105       -0.8430931870
 C         -4.3324668154        1.0724028649        0.0607799746
 C         -5.2675950681        2.1804373868        0.4475566178
 C         -4.7216621729        2.9770757185        1.6408754015
 C         -3.2644854179        3.4103774669        1.4798766320
 H         -2.9986122317        3.9906692617        2.3660623321
 H         -2.6272520363        2.5227789600        1.4752925050
 C         -2.9850422214        4.2426857874        0.2205689638
 H         -2.3536724624        5.0903751656        0.4947664844
 H         -3.9191045988        4.6475776355       -0.1703825870
 C         -2.2560357565        3.4860565081       -0.8913656479
 H         -1.3679769626        2.9996558178       -0.4798112148
 H         -1.9170291939        4.2147561903       -1.6323946412
 C         -3.0842498172        2.4299553930       -1.6343702404
 H         -4.0231097988        2.8708888018       -1.9748846164
 H         -2.5128373576        2.1168287024       -2.5131165265
 H         -4.7964704873        2.3547921553        2.5356679219
 H         -5.3513571771        3.8568573758        1.7852752692
 H         -6.2263779915        1.7391852708        0.7248243356
 H         -5.4153494045        2.8392437053       -0.4059389525
 O         -4.5640692071       -0.0618866260        0.7693175459
 C         -3.7646676836       -1.1781454679        0.6030723474
 O         -4.0860235654       -2.1463777034        1.3205423694
 O         -1.5285365839        0.1306408516       -1.9377979850
 C         -1.9047713811       -2.4110276252       -0.4456419703
 C         -0.6526153500       -2.3382168509        0.3899366418
 C         -0.3697895908       -3.3054002982        1.3462505006
 C          0.7906448252       -3.2325970419        2.0980358502
 C          1.6894180203       -2.1974050892        1.9133764998
 C          1.4143278430       -1.2244418417        0.9606690850
 C          0.2516845788       -1.3004272491        0.2079654032
 H          0.0435000201       -0.5492903896       -0.5403127450
 N          2.3143594194       -0.1520696330        0.7649701528
 S          3.8931102818       -0.5995879214        0.3516750338
 O          3.8777895322       -1.4538837485       -0.8162754678
 O          4.5317996946       -1.1464821993        1.5217960876
 C          4.6042629523        0.9847136898       -0.0421699675
 C          5.0547436862        1.7831234747        0.9916389909
 C          5.5846280193        3.0281790941        0.6931692500
 C          5.6527963632        3.4519269301       -0.6258642783
 C          5.1966247205        2.6389401593       -1.6524496779
 C          4.6646541365        1.3926343391       -1.3607629671
 H          4.3058899386        0.7249240658       -2.1279283398
 H          5.2525488850        2.9698806920       -2.6770509106
 H          6.0664310803        4.4210453654       -0.8561227557
 H          5.9422524862        3.6628760152        1.4878096174
 H          4.9886967315        1.4083884643        1.9995982727
 H          1.9619951209        0.4788715649        0.0552417969
 H          2.6027586162       -2.1387879494        2.4824368478
 H          0.9988750712       -3.9915369229        2.8371780646
 H         -1.0699799913       -4.1130523683        1.5040511221
 H         -2.5453527097       -3.1956387484       -0.0139907728
 C         -1.6334692613       -2.7965560101       -1.8956550859
 C         -0.2684492627       -2.8673603162       -2.5065051864
 C         -1.0189288406       -4.1285786305       -2.2097231824
 H         -1.4172068686       -4.7050880618       -3.0308094211
 H         -0.6776741060       -4.7239700469       -1.3758314051
 H         -0.1669065879       -2.5526930509       -3.5342488971
 H          0.5905179678       -2.6303673112       -1.8972738852
 H         -2.4300077963       -2.4667312954       -2.5549825866
