  62
        -98.94612258
 C          1.1311610851        1.3006365635       -0.0110797055
 C          1.6397999843        0.4247660665        0.9827424150
 C          2.4446968308       -0.7095225996        0.5122935148
 C          2.6253223574       -0.8777466212       -0.8100781742
 C          3.4354927593       -1.9772945129       -1.4322703424
 C          4.8933678825       -1.5464177031       -1.6437626461
 C          5.5343077261       -0.9175932841       -0.4065007473
 H          6.5698492336       -0.6822122762       -0.6613186437
 H          5.0335029566        0.0287494732       -0.1897389399
 C          5.5039237516       -1.8063202083        0.8447636450
 H          5.3213152457       -2.8425474169        0.5581398806
 H          6.4851061422       -1.7700403295        1.3227574690
 C          4.4794228590       -1.3830720790        1.8988765179
 H          4.5986659517       -0.3188047831        2.1165952058
 H          4.6947144658       -1.9319040294        2.8194175929
 C          3.0081732160       -1.6410554673        1.5486929904
 H          2.4216303319       -1.4701970647        2.4559287865
 H          2.8769064940       -2.6815400518        1.2440983720
 H          4.9238282093       -0.8160135433       -2.4557430300
 H          5.4700943197       -2.4205289442       -1.9517830961
 H          3.3937654697       -2.8569782725       -0.7924159498
 H          2.9907704088       -2.2229722528       -2.3986546967
 O          2.1177085713       -0.0282249518       -1.7361399494
 C          1.3608828676        1.0793809290       -1.3710498258
 O          0.9780389252        1.7578593955       -2.3436770445
 O          1.4248931546        0.5849287083        2.2144266016
 C          0.2802467209        2.4544624830        0.4847885460
 C         -1.1914784952        2.1047274726        0.5041195152
 C         -2.0216788407        2.6107186288        1.4992399240
 C         -3.3683141802        2.2984852176        1.5217693478
 C         -3.9089917475        1.4485006484        0.5729631187
 C         -3.0877527454        0.9320332770       -0.4209767788
 C         -1.7449675083        1.2800273036       -0.4627489527
 H         -1.1346967552        0.8859671428       -1.2599726297
 N         -3.5841362743        0.0292326096       -1.3814912424
 S         -2.7677935477       -1.4274490670       -1.5412112353
 O         -1.5269850291       -1.2432081650       -2.2480088735
 O         -3.7289328249       -2.3143472653       -2.1617715406
 C         -2.4661073948       -1.9277098973        0.1430234633
 C         -1.2529690715       -1.6334786705        0.7302603936
 C         -1.0703746981       -1.9191408301        2.0738749155
 C         -2.0973461373       -2.5010098567        2.8005276948
 C         -3.3063904792       -2.8057406334        2.1926344495
 C         -3.4992538218       -2.5078453286        0.8537761200
 H         -4.4227075382       -2.7269001793        0.3424151626
 H         -4.0998030227       -3.2643893796        2.7603704279
 H         -1.9509820694       -2.7175631112        3.8468449315
 H         -0.1332375105       -1.6607547346        2.5413132327
 H         -0.4707969826       -1.1836847151        0.1383371832
 H         -4.5775687537       -0.1415907036       -1.3060848236
 H         -4.9548975729        1.1839533762        0.6006559333
 H         -4.0007581450        2.7031772257        2.2966335200
 H         -1.6022357248        3.2458013169        2.2643521150
 H          0.5906164632        2.6173673590        1.5268110218
 C          0.4882408266        3.7466654778       -0.2822789783
 C          0.3130584021        5.0625103647        0.4121314478
 C          1.6831023470        4.5985382975        0.0202055255
 H          2.1862337990        5.0866568676       -0.8007185451
 H          2.3497586887        4.2618100888        0.8009682574
 H         -0.1316327513        5.8765498167       -0.1391410876
 H          0.0615942548        5.0520440220        1.4613921146
 H          0.1795044240        3.6781160311       -1.3176981280
