  62
        -98.92814566
 C          2.4298309899        0.1317397887       -0.5891955705
 C          3.4298439565       -0.6975976840       -0.0294676501
 C          4.6626546009       -0.0265863652        0.4421405028
 C          4.7565963792        1.3119096183        0.3505161018
 C          5.9165085526        2.1947095832        0.7269310061
 C          7.0599526107        2.1383308257       -0.2996799278
 C          7.4061512180        0.7389127458       -0.8019030496
 H          8.1431660064        0.8462300893       -1.6022368299
 H          6.5156718734        0.2853591155       -1.2410524327
 C          7.9906302198       -0.2035149115        0.2474660454
 H          8.9074214448        0.2331725059        0.6499745852
 H          8.2615467725       -1.1308172907       -0.2639370240
 C          7.0685638823       -0.5576582110        1.4157604156
 H          7.0135315856        0.2574369051        2.1322246706
 H          7.5214734190       -1.4029061684        1.9424067676
 C          5.6661912901       -1.0012325050        1.0109068249
 H          5.1780998813       -1.4499813004        1.8846987140
 H          5.7451727138       -1.8131955341        0.2790167212
 H          7.9449008174        2.5978737968        0.1435954153
 H          6.7656516020        2.7376768173       -1.1647221194
 H          5.5328818840        3.2166673612        0.7640090899
 H          6.2731440007        1.9393161831        1.7203029610
 O          3.7537808703        2.0747556698       -0.1730601061
 C          2.5874070452        1.5181838386       -0.6519572032
 O          1.7725835425        2.3450739470       -1.1113916464
 H         -1.4042962293        0.5383132305       -1.2042518866
 C         -1.1936829948        0.0162520133       -0.2798830752
 C          0.0706069998       -0.5168667916       -0.0750883002
 C          0.3312266765       -1.1701269092        1.1248918669
 C         -0.6539115713       -1.2824288084        2.0893688353
 C         -1.9135727196       -0.7482560059        1.8816029213
 C         -2.1848717662       -0.0949518599        0.6870809078
 N         -3.4659916886        0.4595755511        0.4688511927
 S         -4.7542229348       -0.6385901102        0.5252394378
 O         -4.9275876816       -1.0724690767        1.8870607389
 O         -4.5522292353       -1.6845422363       -0.4545183749
 C         -6.1134131188        0.4066151794        0.0423047284
 C         -6.5610116476        0.3805652986       -1.2645945375
 C         -7.6066641218        1.2132340978       -1.6313582628
 C         -8.1809939051        2.0547927324       -0.6907621660
 C         -7.7201100448        2.0695100179        0.6174812618
 C         -6.6759363910        1.2388113765        0.9910820512
 H         -6.2913400404        1.2099282303        1.9970255048
 H         -8.1711498748        2.7237514044        1.3459977358
 H         -8.9948621435        2.7013177224       -0.9787693665
 H         -7.9689129897        1.2018444177       -2.6467769086
 H         -6.0920118208       -0.2968488074       -1.9602821589
 H         -3.5013570939        0.9534330425       -0.4144873432
 H         -2.6905540124       -0.8426266678        2.6221944486
 H         -0.4390055683       -1.7937835622        3.0159215690
 H          1.3088345451       -1.5976657671        1.2879663288
 C          1.1204690724       -0.3970864784       -1.1500375817
 H          0.7807028300        0.3794126756       -1.8542199349
 C          1.2907542435       -1.6810840543       -1.9517205882
 C          0.8131305046       -3.0222615067       -1.4930853744
 C          0.1026255734       -2.3201562208       -2.6085047783
 H          0.2074760439       -2.6995512768       -3.6136884699
 H         -0.8716061184       -1.9067246335       -2.3917064462
 H          0.3163345372       -3.0908903685       -0.5381632443
 H          1.4310885587       -3.8769655645       -1.7214841626
 H          2.2128058142       -1.6745513514       -2.5243926122
 O          3.3313900829       -1.9465187812        0.0806735398
