  62
        -98.93351945
 C          2.2523414497        0.7481979597       -0.0826846494
 C          3.5065211197        1.1865647794        0.4036937108
 C          4.6866211097        0.4847994094       -0.1219541993
 C          4.5140334296       -0.5000693004       -1.0225766195
 C          5.6068580496       -1.3611229004       -1.5899113496
 C          6.0255530494       -2.4281663906       -0.5580803798
 C          7.4571518594       -2.2796100709       -0.0423254397
 H          7.5634969092       -2.9403937111        0.8206244502
 H          8.1491775394       -2.6283251708       -0.8116816297
 C          7.8787699795       -0.8629354910        0.3594726806
 H          8.7978946894       -0.9580733513        0.9414845806
 H          8.1335249996       -0.2887697809       -0.5324834092
 C          6.8568227995       -0.0659539911        1.1803421907
 H          7.3992875195        0.5027788887        1.9382750109
 H          6.1813398694       -0.7375201411        1.7106371605
 C          6.0317089397        0.9481149192        0.3659870609
 H          6.6240174598        1.3044970993       -0.4811908990
 H          5.8145455997        1.8118111091        1.0013748611
 H          5.9221857393       -3.4207158405       -0.9991252401
 H          5.3279174293       -2.3842459207        0.2809268001
 H          5.2123658296       -1.8353884901       -2.4886790898
 H          6.4568385496       -0.7412896504       -1.8665278494
 O          3.2911576096       -0.8868700901       -1.4729294797
 C          2.1304605796       -0.2786468901       -1.0175991296
 O          1.0819918896       -0.7358484599       -1.5122971598
 O          3.6319946398        2.1191883492        1.2427694810
 C          0.9931793597        1.4316990897        0.4157842907
 C          0.0422399096        0.4263840797        1.0165755404
 C          0.5321181294       -0.5157505606        1.9176748102
 C         -0.3078427207       -1.4548731106        2.4826949100
 C         -1.6543601107       -1.4737126904        2.1642458899
 C         -2.1588808205       -0.5252864201        1.2827877201
 C         -1.3118461804        0.4205463799        0.7209349503
 H         -1.7255594703        1.1398323301        0.0356249604
 N         -3.5358795305       -0.4915485999        0.9967566700
 S         -4.0922621604       -0.0648981395       -0.5379521200
 O         -3.5562203504       -0.9581219594       -1.5412433801
 O         -3.8738221402        1.3435265405       -0.7472293696
 C         -5.8359161604       -0.3659395294       -0.3106282701
 C         -6.4118255005       -1.5077861692       -0.8336071904
 C         -7.7638119005       -1.7327875191       -0.6249505305
 C         -8.5115884205       -0.8189551592        0.1019503896
 C         -7.9195238904        0.3235269806        0.6201116099
 C         -6.5692598004        0.5553783505        0.4133120900
 H         -6.0681220503        1.4323895804        0.7880847302
 H         -8.5047634904        1.0330401206        1.1824670600
 H         -9.5631022805       -0.9967232491        0.2633055495
 H         -8.2274751006       -2.6179598990       -1.0296732608
 H         -5.7924430305       -2.1865431092       -1.3978498105
 H         -4.0102230206       -1.3273248799        1.3127558098
 H         -2.3087560508       -2.2147649604        2.5978369397
 H          0.0890347392       -2.1853154208        3.1718697699
 H          1.5863969394       -0.5070498507        2.1600465703
 H          1.3255194998        2.1113404295        1.2154343808
 C          0.3724362099        2.2565944600       -0.6922501292
 C         -0.4098218400        3.4929448600       -0.3679998190
 C          0.9416101401        3.6068077000       -1.0048879989
 H          1.0038150402        3.9128843002       -2.0384230588
 H          1.7668509101        3.9473023398       -0.3965820587
 H         -1.2850018999        3.7154510702       -0.9602423190
 H         -0.5031055800        3.7638955698        0.6728580111
 H          0.0399890099        1.6479777702       -1.5274508393
