  62
        -98.93202455
 C         -1.2128528493       -1.0299371521       -0.9356830748
 C         -2.5795024513       -1.2567666483       -0.6071279848
 C         -3.4786401169       -0.0936791025       -0.5614935463
 C         -2.9796695178        1.1273421179       -0.8127021944
 C         -3.6946878611        2.4547053669       -0.8648491408
 C         -4.7674430281        2.7257228276        0.1964539516
 C         -4.4670410462        2.1366127644        1.5825549583
 H         -3.4340817052        1.7844955796        1.6254116955
 H         -4.5712204781        2.9225622033        2.3332543204
 C         -5.4126025784        0.9949386333        1.9635861554
 H         -6.4302755717        1.2739491625        1.6815109257
 H         -5.3952704288        0.8736418517        3.0494228839
 C         -5.0782954512       -0.3645330825        1.3512034932
 H         -4.1571163320       -0.7529943274        1.7948112730
 H         -5.8790139454       -1.0589472082        1.6171028497
 C         -4.9021455131       -0.3775229064       -0.1760185360
 H         -5.1133570186       -1.3903761552       -0.5294047761
 H         -5.5936126867        0.3091680476       -0.6582924369
 H         -4.8652155875        3.8099822017        0.2749442040
 H         -5.7284576204        2.3484315377       -0.1500660960
 H         -4.1398093734        2.5615384427       -1.8587551313
 H         -2.9040542772        3.2050240736       -0.7840231484
 O         -1.6665860269        1.3109433787       -1.1114168719
 C         -0.7510979431        0.2675541290       -1.1695198016
 O          0.3954299389        0.6641095312       -1.4484206196
 O         -3.0445930662       -2.4054152984       -0.3716547793
 C         -0.3514302402       -2.2836307347       -0.9450979432
 C          0.5466210379       -2.3915411519        0.2669627465
 C          0.5182027996       -3.5359972527        1.0582136260
 C          1.3326248926       -3.6445737456        2.1709375849
 C          2.1787545186       -2.6093002844        2.5267706356
 C          2.2152568508       -1.4630473206        1.7417125730
 C          1.4183337903       -1.3696484526        0.6099514748
 H          1.4536896749       -0.4748571997        0.0138630107
 N          3.0691944934       -0.3967817535        2.0557958398
 S          2.5986609301        1.1782795398        1.7334877126
 O          3.4437115113        1.9812940145        2.5978495457
 O          1.1771969432        1.3596579868        1.9262464469
 C          3.0838630284        1.4848332388        0.0493696121
 C          4.0320153284        0.6853704882       -0.5551920196
 C          4.4197553572        0.9756775086       -1.8533236894
 C          3.8626296817        2.0568191233       -2.5174587602
 C          2.9170078320        2.8535010929       -1.8924503827
 C          2.5221401923        2.5665135581       -0.5962575591
 H          1.7738192611        3.1486185768       -0.0819083050
 H          2.4762211275        3.6893931936       -2.4120575516
 H          4.1607911473        2.2762639544       -3.5307543501
 H          5.1498265432        0.3525576709       -2.3446331767
 H          4.4379007649       -0.1559433459       -0.0182591288
 H          3.5616408450       -0.4739778732        2.9334339477
 H          2.8018425364       -2.6836055804        3.4050403910
 H          1.2986548680       -4.5375004539        2.7766064044
 H         -0.1606487862       -4.3369241511        0.8033252562
 H         -1.0996019179       -3.0869294313       -0.8505773111
 C          0.4392935518       -2.6253360051       -2.2052243515
 C          0.1592717804       -2.0126269556       -3.5422829642
 C          1.4670910967       -1.7527306889       -2.8565472197
 H          2.3541585376       -2.2296561962       -3.2469616158
 H          1.6301684009       -0.7661807460       -2.4570174667
 H          0.1360446670       -2.6527292318       -4.4118591003
 H         -0.5513650962       -1.1991953476       -3.5764061692
 H          0.6705020623       -3.6875135867       -2.2186450625
