  62
        -98.94318824
 C         -0.8307491290       -1.6895059345       -0.8444394238
 C         -1.9743426693       -2.0572749880       -0.0890182742
 C         -3.1180481973       -1.1424295292       -0.1493427914
 C         -3.0415055505       -0.0329408894       -0.9060905932
 C         -4.1298072253        0.9901103130       -1.0890210086
 C         -4.1922019673        2.0436901647        0.0249560124
 C         -4.7289418249        1.5453582042        1.3670366262
 H         -5.6819444334        1.0380928918        1.2136653468
 H         -4.9255468136        2.4262934665        1.9812596082
 C         -3.7666389838        0.6200015910        2.1249644864
 H         -3.7115453745        0.9276203858        3.1715789724
 H         -2.7611180573        0.7178691165        1.7086938618
 C         -4.1653724970       -0.8556561293        2.1077801136
 H         -5.1090961297       -0.9879529648        2.6419243684
 H         -3.3965687392       -1.4258615326        2.6356938437
 C         -4.3128722220       -1.4508152382        0.7014592079
 H         -5.2227296785       -1.0808086395        0.2291301603
 H         -4.3830721160       -2.5374462673        0.7943545026
 H         -4.8418802516        2.8491022233       -0.3249772478
 H         -3.1911256327        2.4533582146        0.1673370962
 H         -5.0934629605        0.4862151221       -1.1714475281
 H         -3.9217759878        1.4979863189       -2.0329399075
 O         -1.9387736095        0.2753577197       -1.6354839601
 C         -0.8010896456       -0.5271305718       -1.6168345427
 O          0.1207991375       -0.0917479739       -2.3284549098
 O         -2.0365193655       -3.1127297224        0.5975560524
 C          0.3695705716       -2.6120894581       -0.7352990726
 C          1.2419040740       -2.2042507586        0.4250400282
 C          1.6825060478       -3.1436624741        1.3502203467
 C          2.4778831341       -2.7615416748        2.4157954675
 C          2.8593574354       -1.4410490046        2.5689682561
 C          2.4212969165       -0.4927870118        1.6511089173
 C          1.6082893294       -0.8764692907        0.5947734094
 H          1.2699224608       -0.1346363101       -0.1120310062
 N          2.7693961365        0.8580589598        1.7872303284
 S          3.1086730342        1.7632291457        0.4174826997
 O          3.7315881362        0.9554890364       -0.6039761459
 O          3.9043757696        2.8679847975        0.9151973346
 C          1.5413394450        2.4081359419       -0.1182739383
 C          0.6605753441        2.8720140686        0.8393465139
 C         -0.5287586391        3.4498396376        0.4282252314
 C         -0.8128291625        3.5580702918       -0.9255644962
 C          0.0815709638        3.0867413171       -1.8720068142
 C          1.2734022384        2.5061509472       -1.4678242296
 H          1.9839715184        2.1092049284       -2.1745879706
 H         -0.1454752746        3.1546272610       -2.9235495335
 H         -1.7381313119        4.0109296136       -1.2467524444
 H         -1.2280629649        3.8161056753        1.1637758613
 H          0.9155927219        2.7711615149        1.8814680899
 H          3.4106044504        1.0620596777        2.5401809833
 H          3.4867364810       -1.1411804491        3.3945434473
 H          2.8102072000       -3.4991584138        3.1303535689
 H          1.3851121767       -4.1758108930        1.2368863259
 H         -0.0536558549       -3.6007455095       -0.4935348687
 C          1.1521416283       -2.7658757711       -2.0304704004
 C          2.4528234603       -2.0804234927       -2.3078974010
 C          2.4275687083       -3.5560778373       -2.0522200425
 H          2.6070603731       -4.2278591061       -2.8780664483
 H          2.8145267458       -3.9039720724       -1.1061849802
 H          2.6223105007       -1.7304046218       -3.3151599664
 H          2.8711269248       -1.4244897483       -1.5595232289
 H          0.4904594212       -2.8888418825       -2.8826292293
