  62
        -98.94314822
 C          2.5804723748        0.1018380510        0.3402374767
 C          2.6434735359        1.1088913543       -0.6581117569
 C          2.0613635919        2.4088121679       -0.3174557513
 C          1.5097389692        2.5886121011        0.8956430940
 C          0.8366631476        3.8409704921        1.3872937261
 C         -0.6269830547        3.9554038121        0.9385758140
 C         -0.8274115943        4.3364629070       -0.5292693970
 H         -1.8722574714        4.6329102114       -0.6413152530
 H         -0.2132989455        5.2063585612       -0.7663194944
 C         -0.5303397691        3.2038709530       -1.5220002529
 H         -0.5463715272        2.2457404442       -0.9969334463
 H         -1.3215719210        3.1676841681       -2.2752288817
 C          0.7934434410        3.3428151075       -2.2745414037
 H          0.9226989853        2.4557286281       -2.8999326091
 H          0.7525612943        4.2166991312       -2.9296663588
 C          2.0300094375        3.4695948761       -1.3765260831
 H          2.0640665732        4.4588279797       -0.9201369520
 H          2.9184269371        3.3394456781       -1.9999279855
 H         -1.1239044237        3.0013712581        1.1356231920
 H         -1.1019922432        4.7177975700        1.5610244562
 H          1.3942920452        4.7176259732        1.0556568304
 H          0.8632922073        3.8015086464        2.4784776212
 O          1.5172408743        1.6214070444        1.8477413722
 C          2.0066622296        0.3478546617        1.5881858128
 O          1.8878829335       -0.4295889378        2.5575856030
 O          3.1686156843        0.9229382962       -1.7899671083
 C          3.0380922710       -1.2822434266       -0.0897383829
 C          1.8738308712       -1.9731516198       -0.7644521232
 C          2.0111421713       -2.5833647320       -2.0052791562
 C          0.9118772631       -3.1276038328       -2.6464967345
 C         -0.3480864167       -3.0368683338       -2.0833740228
 C         -0.4927197419       -2.4362163712       -0.8374482176
 C          0.6204827835       -1.9491995974       -0.1708013983
 H          0.4878507531       -1.5033080012        0.8035992029
 N         -1.7508458054       -2.2923003524       -0.2332921150
 S         -2.0374504260       -0.8545415889        0.6171999303
 O         -1.2981179687        0.2342311656        0.0245105703
 O         -1.8227896430       -1.1051314372        2.0206748869
 C         -3.7833830676       -0.6354782587        0.3207121256
 C         -4.1975729629        0.2684445477       -0.6387463982
 C         -5.5546737794        0.4126372081       -0.8824471568
 C         -6.4686025257       -0.3482125042       -0.1692039104
 C         -6.0376513512       -1.2513086268        0.7915993434
 C         -4.6826192660       -1.3989386931        1.0416350148
 H         -4.3003798506       -2.0781888064        1.7858407577
 H         -6.7511153738       -1.8386294969        1.3466685929
 H         -7.5237658389       -0.2342021661       -0.3608469250
 H         -5.8920630755        1.1168611929       -1.6256595522
 H         -3.4492503052        0.8419572165       -1.1623105450
 H         -2.5184426578       -2.5321299140       -0.8456659152
 H         -1.2130842736       -3.4210211839       -2.6023206391
 H          1.0321003266       -3.5983682067       -3.6103430849
 H          2.9812947074       -2.6054644656       -2.4788354315
 H          3.8121480583       -1.1163031582       -0.8526263331
 C          3.6226284741       -2.1474219309        1.0059713449
 C          4.5889474035       -3.2327323932        0.6390591922
 C          5.0724101004       -2.0094668910        1.3571825654
 H          5.3572617500       -2.0922229642        2.3949508443
 H          5.6524109658       -1.2867842714        0.8018808556
 H          4.5440934935       -4.1637729550        1.1825543425
 H          4.8493076143       -3.3422018540       -0.4026455048
 H          2.9315753619       -2.3390050839        1.8165122679
