  62
        -98.94527461
 C          1.4863077844        0.7772159306       -0.5341946817
 C          2.6311288258        1.0350693612        0.2648484675
 C          3.3929777839       -0.1326424657        0.7220129794
 C          2.9589516360       -1.3638183399        0.3973129769
 C          3.6526267291       -2.6438639360        0.7622293115
 C          4.6438096572       -3.0726832093       -0.3288009788
 C          5.5839737615       -1.9553584733       -0.7811613592
 H          6.2570144496       -2.3795934329       -1.5292724906
 H          4.9988977892       -1.1780609184       -1.2777806141
 C          6.4084127798       -1.3231432149        0.3488600821
 H          6.4143652951       -1.9830909986        1.2170815352
 H          7.4422440076       -1.2199153596        0.0127025278
 C          5.9375168351        0.0686662750        0.7749495184
 H          5.8379557954        0.7074856111       -0.1061065114
 H          6.7090885181        0.5082262063        1.4126219349
 C          4.6180822474        0.1174038135        1.5560597749
 H          4.5051888365        1.1290787499        1.9569164126
 H          4.6604165280       -0.5803613394        2.3952487732
 H          4.0755682347       -3.4151040717       -1.1966502868
 H          5.2286281039       -3.9138341636        0.0480358096
 H          4.1725166948       -2.5099719049        1.7091126472
 H          2.8952221150       -3.4206231229        0.8827714043
 O          1.8513592832       -1.5771750175       -0.3521579856
 C          1.0847328864       -0.5246364950       -0.8333563029
 O          0.1090777177       -0.9004473437       -1.5116430163
 O          3.0029956148        2.1994691892        0.5752150784
 C          0.6970744210        1.9968602582       -0.9828876891
 C         -0.3677121834        2.3166570376        0.0407288458
 C         -0.3553696832        3.5287060280        0.7197070544
 C         -1.3058152675        3.8001090341        1.6877981437
 C         -2.2692855524        2.8617382446        2.0057640932
 C         -2.2916912932        1.6440633371        1.3311026999
 C         -1.3584467461        1.3898906347        0.3373668582
 H         -1.3726582887        0.4438161791       -0.1770136757
 N         -3.2673882089        0.6900337217        1.6420891554
 S         -3.0154525972       -0.9641282170        1.5335782956
 O         -3.8469362155       -1.5118856840        2.5877656963
 O         -1.6140017749       -1.3023350141        1.5925551091
 C         -3.7560661203       -1.3861542349       -0.0296357171
 C         -5.1376295528       -1.3712231543       -0.0875491389
 C         -5.7652635196       -1.6757482991       -1.2832041962
 C         -5.0041413240       -1.9888837892       -2.4000001468
 C         -3.6207750651       -2.0013563575       -2.3247227923
 C         -2.9845194402       -1.6982337618       -1.1292928965
 H         -1.9077021888       -1.6944471261       -1.0543994133
 H         -3.0225658683       -2.2423618379       -3.1891374068
 H         -5.4905197470       -2.2257921110       -3.3332678956
 H         -6.8416981649       -1.6682341186       -1.3423615074
 H         -5.6892159709       -1.1357873780        0.8074130103
 H         -3.8498271510        0.9235965494        2.4324336909
 H         -2.9985825604        3.0623333986        2.7759884693
 H         -1.2865038513        4.7440772610        2.2110942772
 H          0.4190928146        4.2490505866        0.5014400732
 H          1.4194179967        2.8251030222       -0.9756841742
 C          0.1032612872        1.8940920501       -2.3724637084
 C         -0.2166431572        3.1550093796       -3.1163511921
 C          0.9298604097        2.2955782734       -3.5555793261
 H          0.8328156523        1.7254849931       -4.4670849060
 H          1.9335388820        2.6486903584       -3.3676289520
 H         -1.1052270159        3.1789444298       -3.7278639252
 H          0.0106861529        4.0930407745       -2.6329262665
 H         -0.5646789674        1.0526651119       -2.4972079912
