  62
        -98.93998325
 C          1.9690853867        1.2296802627       -0.4101721776
 C          1.5190069772        0.0247422260       -0.9954924944
 C          2.2960252580       -1.1947183698       -0.6961189577
 C          3.3594061094       -1.1218494242        0.1240637075
 C          4.3529883088       -2.1688894868        0.5851991688
 C          4.1444490607       -3.6418872870        0.2473582401
 C          2.9953213993       -4.3110339522        1.0050299541
 H          2.8103974578       -5.2912950371        0.5610387209
 H          3.3133552879       -4.4693104738        2.0386541216
 C          1.6841715021       -3.5297312198        1.0509520728
 H          1.8452866258       -2.5546112280        1.5155200588
 H          0.9879728422       -4.0719887682        1.6972199118
 C          0.9899963153       -3.3184223206       -0.2916370715
 H          0.0426060807       -2.8132289047       -0.0814320764
 H          0.7664433305       -4.2843047862       -0.7503589014
 C          1.7684014689       -2.4641640803       -1.3023390718
 H          2.5660645522       -3.0377489193       -1.7672260010
 H          1.0758767227       -2.1629082587       -2.0937784037
 H          5.0661615090       -4.1605155218        0.5245500142
 H          4.0274188544       -3.7640507092       -0.8255443046
 H          4.4283269334       -2.0562985212        1.6717574022
 H          5.3192428245       -1.8519372726        0.1773552329
 O          3.7506853182        0.0631943889        0.6809370748
 C          3.0739102527        1.2429320115        0.4440066673
 O          3.5543230870        2.2323420445        1.0348265801
 O          0.5205084011       -0.0602083199       -1.7590881743
 C          1.2871674539        2.5760861809       -0.6032345353
 C          0.1520361032        2.7386413043        0.3806852600
 C          0.1238964722        3.8155077294        1.2584747801
 C         -0.9015725394        3.9450198393        2.1781021522
 C         -1.8979433337        2.9898619260        2.2557556973
 C         -1.8782281067        1.9058233905        1.3834701638
 C         -0.8733944189        1.8045310164        0.4335590814
 H         -0.8667922216        0.9684030883       -0.2440074779
 N         -2.8753313800        0.9223473273        1.4518620732
 S         -2.5200224699       -0.7178835632        1.3210099664
 O         -3.3106258313       -1.3456255411        2.3629399260
 O         -1.1002221509       -0.9583564687        1.3695299193
 C         -3.2269438955       -1.1672702088       -0.2512449883
 C         -2.4529576837       -1.2172325023       -1.3919951215
 C         -3.0576943005       -1.5548934370       -2.5940570562
 C         -4.4144689617       -1.8325175320       -2.6373818020
 C         -5.1788490281       -1.7779010869       -1.4812327961
 C         -4.5817219948       -1.4426633671       -0.2779378963
 H         -5.1335856264       -1.4032902540        0.6465898429
 H         -6.2342562152       -1.9956408983       -1.5147062157
 H         -4.8769683625       -2.0941275374       -3.5761442746
 H         -2.4577867909       -1.5944560362       -3.4893578168
 H         -1.3983441359       -0.9924962877       -1.3445829522
 H         -3.5479007901        1.0727688945        2.1899997136
 H         -2.6847893104        3.0755152295        2.9903405931
 H         -0.9149248465        4.7868556562        2.8538932482
 H          0.9223695663        4.5425108816        1.2298025566
 H          2.0489146356        3.3288402757       -0.3563472363
 C          0.8118014113        2.8274768616       -2.0207654611
 C          0.6552504976        4.2403559102       -2.4932018202
 C          1.7690662416        3.3904615459       -3.0257261189
 H          1.7120069129        3.0375159190       -4.0442737192
 H          2.7755416221        3.6007446166       -2.6932184320
 H         -0.1702975605        4.4748945773       -3.1472392555
 H          0.9082888647        5.0311715054       -1.8032422127
 H          0.0965270087        2.0959024619       -2.3709551456
