  62
        -98.93660915
 C         -1.5133472202       -1.4722727466        0.5418675845
 C         -1.4214824591       -0.3329023057       -0.2929851575
 C         -2.2998147233        0.8036824711        0.0537283380
 C         -3.0571190031        0.7475349896        1.1638274894
 C         -4.0032431533        1.7585742133        1.7775744809
 C         -4.5120675720        2.9458349310        0.9636298240
 C         -5.4264200782        2.5776902503       -0.2044211443
 H         -6.3687327767        2.1973585404        0.1982378831
 H         -5.6487897608        3.4894481377       -0.7631663171
 C         -4.8790086694        1.5262720219       -1.1668008397
 H         -4.7573808933        0.5766749157       -0.6413638020
 H         -5.6282274672        1.3662194257       -1.9469459451
 C         -3.5629546948        1.8884473348       -1.8526778301
 H         -3.6631134955        2.8556987126       -2.3485576112
 H         -3.3772577404        1.1354580669       -2.6232099313
 C         -2.3265364339        1.9309445829       -0.9370525141
 H         -1.4370325016        1.8048295257       -1.5601475428
 H         -2.2445428219        2.8900190479       -0.4321967459
 H         -5.0913560341        3.5676205657        1.6518336825
 H         -3.6796804480        3.5518339970        0.6184861136
 H         -4.8598436516        1.1809616910        2.1397226320
 H         -3.4940642481        2.1426583417        2.6686901909
 O         -3.0204997965       -0.3308425500        2.0028785933
 C         -2.2785055228       -1.4609311528        1.7084953334
 O         -2.3693722327       -2.3680623217        2.5606754947
 H          0.9751029959       -1.3587765407        1.7222367638
 C          1.4371440867       -1.6632659083        0.7902936023
 C          0.6910702845       -2.4006403265       -0.1216943897
 C          1.2905091466       -2.7774815485       -1.3156020485
 C          2.6013859677       -2.4227043620       -1.5836617085
 C          3.3397227194       -1.6885034047       -0.6746698120
 C          2.7463593588       -1.2996347245        0.5198464618
 N          3.4833539240       -0.5421635635        1.4509299639
 S          4.2659624429        0.8300518762        0.8943929640
 O          5.4418425156        0.4399455647        0.1576466824
 O          4.4954854381        1.6335433371        2.0746962711
 C          3.1047126958        1.6396922401       -0.1877007660
 C          2.0675152803        2.3452286953        0.3885529224
 C          1.1367986420        2.9587472486       -0.4320251699
 C          1.2512212432        2.8459701009       -1.8088056257
 C          2.2939230391        2.1282620940       -2.3716032906
 C          3.2329215737        1.5183256923       -1.5558069191
 H          4.0633830368        0.9603386870       -1.9555641842
 H          2.3759814266        2.0384665873       -3.4427441144
 H          0.5223705801        3.3214965583       -2.4462458424
 H          0.3234093534        3.5159301572        0.0044155664
 H          2.0143264950        2.4161737592        1.4636773052
 H          2.9664936560       -0.3286042979        2.2916237135
 H          4.3615783487       -1.4058611104       -0.8688077226
 H          3.0541506927       -2.7202145197       -2.5172441199
 H          0.7257335416       -3.3292566596       -2.0484770072
 C         -0.7308962303       -2.7410297125        0.2513825498
 H         -0.7027541853       -3.2842701733        1.2109100422
 C         -1.4114378146       -3.6645430938       -0.7489402367
 C         -2.9025459919       -3.6720785963       -0.9022478992
 C         -2.0382996228       -3.1532231786       -2.0098086634
 H         -1.9456604892       -3.7482258680       -2.9066011841
 H         -2.0080830174       -2.0899221867       -2.1856860881
 H         -3.3987274540       -4.6219360340       -1.0343997356
 H         -3.4705937156       -2.9631357867       -0.3171088403
 H         -0.9220134535       -4.6320758837       -0.8036219141
 O         -0.6524172397       -0.2491982288       -1.2827958054
