  62
        -98.93762821
 C         -2.1962764617       -0.9061861759       -0.0787414702
 C         -3.2033978881       -0.7093774636        0.8994886324
 C         -4.0806175363        0.4517416395        0.7059968020
 C         -3.8685652683        1.2765715680       -0.3350068312
 C         -4.6246634570        2.5397898864       -0.6516407082
 C         -6.1112327130        2.3692490416       -1.0202948268
 C         -7.0775344804        2.5293115896        0.1599516795
 H         -6.5966175390        3.1378481868        0.9267415304
 H         -7.9540104999        3.0860611213       -0.1776867531
 C         -7.5887585792        1.2280371541        0.7855753730
 H         -8.0483046608        1.4767487289        1.7445463058
 H         -8.3687057458        0.8077310301        0.1465863988
 C         -6.5413985243        0.1365662562        1.0068597807
 H         -6.2950247125       -0.3349418739        0.0525762801
 H         -6.9871024366       -0.6416932007        1.6293854974
 C         -5.2308554656        0.6235073614        1.6551795897
 H         -5.3182270087        1.6630415918        1.9674820824
 H         -5.0020624650        0.0176435911        2.5340864524
 H         -6.3434996238        3.1394937631       -1.7574661723
 H         -6.2568566242        1.4043637676       -1.5052603769
 H         -4.5372712119        3.2216666654        0.1974120219
 H         -4.0967132756        2.9899964833       -1.4949144192
 O         -2.8710921105        1.0690602796       -1.2370768003
 C         -2.0204784428       -0.0225928921       -1.1435049296
 O         -1.1769288473       -0.0816177392       -2.0599136549
 H          0.8749020027       -1.4719452912       -1.5058449655
 C          1.0692929602       -1.2866932494       -0.4613300130
 C          0.0945676308       -1.5715066723        0.4821744408
 C          0.3579146592       -1.2871221031        1.8193550732
 C          1.5673936631       -0.7360813602        2.1984247513
 C          2.5356265331       -0.4464486661        1.2523330887
 C          2.2749949372       -0.7094377331       -0.0851952714
 N          3.2447199111       -0.4027141786       -1.0562170754
 S          3.9554890958        1.1175908877       -1.0035248004
 O          3.0809567274        2.1035877710       -0.4110755873
 O          4.3973213486        1.3772190901       -2.3567372511
 C          5.3873597869        0.8718774509        0.0286203014
 C          6.2508835849       -0.1583228481       -0.2893237981
 C          7.3749979316       -0.3557005814        0.4964768564
 C          7.6175650487        0.4772309254        1.5787183904
 C          6.7431673790        1.5092270480        1.8827320728
 C          5.6161006218        1.7114550333        1.1010929840
 H          4.9047917407        2.4966789185        1.3029229911
 H          6.9330232990        2.1561191574        2.7241626173
 H          8.4930185162        0.3211185051        2.1890452688
 H          8.0569295424       -1.1575566597        0.2636206427
 H          6.0269111068       -0.7810812696       -1.1391249841
 H          2.9447119231       -0.6162026716       -1.9971126368
 H          3.4758137930       -0.0039093681        1.5383315379
 H          1.7587992683       -0.5251858664        3.2395877086
 H         -0.4073577959       -1.4892897984        2.5555819257
 C         -1.2648230249       -2.0959800801        0.0916558526
 H         -1.6697417273       -2.6590415718        0.9431026502
 C         -1.2486207793       -2.9978519429       -1.1244286038
 C         -0.6624234040       -4.3720638840       -1.0061248701
 C         -2.1431848664       -4.1992882832       -1.1561457426
 H         -2.6033561629       -4.4727189779       -2.0939220011
 H         -2.7693741426       -4.3788641196       -0.2946163848
 H         -0.2817838872       -4.6673694388       -0.0402069059
 H         -0.1035984264       -4.7681891972       -1.8400896644
 H         -1.1086094288       -2.4643357429       -2.0564859709
 O         -3.3589469142       -1.4688429088        1.8921193630
