  62
        -98.93310319
 C         -2.5564759622       -1.0068113381        0.4825194739
 C         -2.6324910282        0.1665196670        1.2701975382
 C         -3.6321577876        1.1706832718        0.8686320144
 C         -4.3854569576        0.9381244633       -0.2203893980
 C         -5.4302359967        1.8359072912       -0.8239027096
 C         -4.8232975832        2.7185125563       -1.9275349359
 C         -4.2195978658        4.0345633879       -1.4390649319
 H         -3.7155865394        4.4967918568       -2.2909201917
 H         -5.0241166300        4.7056042853       -1.1308083029
 C         -3.2202774825        3.9058010272       -0.2865264748
 H         -2.5578253504        3.0573480777       -0.4685068860
 H         -2.5999989684        4.8041333357       -0.2794054900
 C         -3.8965970915        3.7575488047        1.0846378077
 H         -4.9565629832        3.9906797841        0.9865941935
 H         -3.4806644013        4.4946435541        1.7746962089
 C         -3.7296643015        2.3849139289        1.7520602141
 H         -2.8048534105        2.3753690925        2.3373785176
 H         -4.5487743726        2.2325297960        2.4629353094
 H         -4.0594261715        2.1312083033       -2.4438545361
 H         -5.6020228960        2.9531689051       -2.6560664498
 H         -6.1771787821        1.1798753507       -1.2757935609
 H         -5.9107505185        2.4375370604       -0.0581483935
 O         -4.2481650811       -0.1837599802       -0.9781590833
 C         -3.3371363144       -1.1774348961       -0.6610111885
 O         -3.3329288927       -2.1335805078       -1.4580054991
 H          0.4612578758       -0.3570811727        0.9187484973
 C          0.5724698898       -1.0577559029        0.1008682518
 C         -0.3905822612       -2.0451357430       -0.0711664082
 C         -0.2481909285       -2.9383804951       -1.1247623432
 C          0.8297221412       -2.8329306603       -1.9871290731
 C          1.7837313021       -1.8466410615       -1.8166078308
 C          1.6532046981       -0.9509216499       -0.7625280052
 N          2.6152897686        0.0612545596       -0.5857491919
 S          4.2342639690       -0.3986581992       -0.7494841214
 O          4.5784343187       -0.3540283451       -2.1489490962
 O          4.4599142868       -1.6626248240       -0.0853658474
 C          5.0674830177        0.9157596226        0.1179019467
 C          5.2835139292        2.1144006714       -0.5353057805
 C          5.9180030575        3.1417166443        0.1447120324
 C          6.3231243153        2.9547052636        1.4581144974
 C          6.0996493519        1.7458647260        2.0998914765
 C          5.4642176658        0.7145910664        1.4262864478
 H          5.2777321000       -0.2447026476        1.8820731441
 H          6.4180972036        1.6023534755        3.1198590844
 H          6.8190367177        3.7550369237        1.9842721095
 H          6.0960682402        4.0823466277       -0.3510036280
 H          4.9609358218        2.2105733610       -1.5588670115
 H          2.4659370513        0.5806462107        0.2686667573
 H          2.6312784429       -1.7627128936       -2.4780431427
 H          0.9290671734       -3.5310120250       -2.8049823080
 H         -0.9897649043       -3.7043295897       -1.2799887692
 C         -1.5551181961       -2.0758868517        0.8887074767
 H         -1.1828577221       -1.7600836219        1.8731795478
 C         -2.1947957942       -3.4401767010        1.0304660948
 C         -1.4567879331       -4.5187169718        1.7637948736
 C         -2.6685037672       -3.8878972938        2.3794288393
 H         -3.5779046065       -4.4667046967        2.4390453707
 H         -2.5268177078       -3.2115567591        3.2097607115
 H         -1.5315495313       -5.5327045787        1.4020815688
 H         -0.4894240681       -4.2691607696        2.1732998382
 H         -2.7950503948       -3.7259893869        0.1759674004
 O         -1.8930995267        0.3682110408        2.2724662476
