  62
        -98.93470150
 C         -2.5637274096       -0.5260185596        0.3481265615
 C         -2.8638197699        0.8581456502        0.2607161401
 C         -4.1397219300        1.2150936292       -0.3709404203
 C         -4.9308517498        0.2354163885       -0.8443410592
 C         -6.2797677299        0.4458003875       -1.4676142694
 C         -7.3954402098        0.3792397683       -0.4153759693
 C         -7.1335503100        1.2444599297        0.8173253498
 H         -7.9997037500        1.1445457302        1.4750524299
 H         -6.2723120399        0.8439287005        1.3569720302
 C         -6.8920701604        2.7290925394        0.5108174982
 H         -7.2569649705        2.9650669883       -0.4894097120
 H         -7.4689150705        3.3306318000        1.2164418376
 C         -5.4333814705        3.1730921499        0.6354826077
 H         -5.4078484208        4.2658832599        0.6155611265
 H         -5.0348392604        2.8543287911        1.6019200680
 C         -4.4869956204        2.6743969990       -0.4639860918
 H         -4.9072628205        2.9075479679       -1.4445206220
 H         -3.5411480006        3.2136902094       -0.3584450824
 H         -8.3317378499        0.6857155676       -0.8853334796
 H         -7.5022896695       -0.6579812514       -0.0894066482
 H         -6.2951071701        1.4118293269       -1.9685762204
 H         -6.4427210197       -0.3399074733       -2.2072171186
 O         -4.6034333595       -1.0774175913       -0.7652621878
 C         -3.4192392493       -1.4998555004       -0.1695461774
 O         -3.2739902690       -2.7350944504       -0.1772934361
 O         -2.0957375601        1.7553020909        0.7024704191
 C         -1.2532023095       -0.8892201686        1.0229206419
 C         -0.1316633995       -0.9841301894        0.0195921719
 C         -0.2507095493       -1.7594815106       -1.1291482772
 C          0.7968847407       -1.8425941013       -2.0285544972
 C          1.9769198105       -1.1536615207       -1.8087349180
 C          2.1052790704       -0.3732095795       -0.6676548788
 C          1.0537308904       -0.2974994888        0.2378854412
 H          1.1516592702        0.3206579321        1.1205330705
 N          3.2924896502        0.3550342910       -0.4439683796
 S          4.7441745804       -0.5134910186       -0.4728782787
 O          5.0144149805       -0.9152417800       -1.8290262383
 O          4.7032786207       -1.5765754076        0.5083561324
 C          5.8956814801        0.7501482922        0.0270097799
 C          6.3012274298        1.6793500713       -0.9119175011
 C          7.1784113296        2.6804008720       -0.5268126522
 C          7.6325109996        2.7353493635        0.7827473777
 C          7.2174846399        1.7946918543        1.7131314887
 C          6.3388673301        0.7914948437        1.3349752098
 H          5.9971826403        0.0342548444        2.0224329707
 H          7.5744664099        1.8384269255        2.7295167887
 H          8.3162098094        3.5149479940        1.0796089569
 H          7.5053011394        3.4126723713       -1.2473426830
 H          5.9295622998        1.5924485602       -1.9193851910
 H          3.2412064001        0.8823318619        0.4186150298
 H          2.7998069205       -1.2198987013       -2.5012195779
 H          0.6934637708       -2.4513890123       -2.9145367565
 H         -1.1683955992       -2.3006156610       -1.3048490866
 H         -1.0325413797       -0.0305331278        1.6773450509
 C         -1.3525193191       -2.1178298877        1.9161902432
 C         -0.7333728388       -3.4401334278        1.5907254846
 C         -0.1513213790       -2.5929436765        2.6797106536
 H         -0.2783434788       -2.9041029755        3.7054602140
 H          0.7927918309       -2.1085597065        2.4776007731
 H         -1.2860841985       -4.3283207977        1.8555982455
 H         -0.1800319988       -3.5348740987        0.6697612046
 H         -2.3030985891       -2.1556826973        2.4390643232
