  62
        -98.94596919
 C          1.2039679044        0.9521514875       -0.4619604417
 C          2.3214812736        1.2088369984        0.3740975778
 C          3.0942044205        0.0427016639        0.8109905248
 C          2.6947764783       -1.1902980597        0.4517777900
 C          3.3513339393       -2.4852500874        0.8477438079
 C          4.5403205774       -2.8812535548       -0.0386226802
 C          5.8064872418       -2.0476276225        0.1620976488
 H          6.0599238921       -2.0247071206        1.2224407921
 H          6.6162092411       -2.5656664690       -0.3555906203
 C          5.7126732931       -0.6138554365       -0.3781060096
 H          4.8701706915       -0.5396405917       -1.0693716618
 H          6.6155485380       -0.3789195855       -0.9461427992
 C          5.5628460224        0.4607100657        0.6988567671
 H          5.4709330482        1.4310435706        0.2044880391
 H          6.4597917494        0.4836718012        1.3217421026
 C          4.3411962719        0.2771889831        1.6092257279
 H          4.5084243153       -0.5463978184        2.3035343539
 H          4.1990126227        1.1953547468        2.1846508258
 H          4.2292617531       -2.8259705825       -1.0842577597
 H          4.7786114259       -3.9240434590        0.1834525389
 H          2.5849896561       -3.2592984689        0.7660546025
 H          3.6727677199       -2.4278335357        1.8883276944
 O          1.6033886368       -1.4020239747       -0.3258371339
 C          0.8379903181       -0.3487812186       -0.8104728272
 O         -0.1091086017       -0.7229392332       -1.5293211598
 O          2.6605867624        2.3686465616        0.7355343218
 C          0.3981683370        2.1639550654       -0.9003093253
 C         -0.7530661163        2.3910914752        0.0508635402
 C         -0.9217257592        3.6080740308        0.7004813864
 C         -1.9595546717        3.7872415417        1.5981161567
 C         -2.8295566302        2.7505048698        1.8837718754
 C         -2.6674421371        1.5296383265        1.2387251393
 C         -1.6537621812        1.3676332348        0.3075296152
 H         -1.5425711275        0.4193109918       -0.1920681661
 N         -3.5180021906        0.4465165211        1.5036479870
 S         -2.8791224271       -1.1039867344        1.5302854219
 O         -3.8116418789       -1.8555396115        2.3491742839
 O         -1.5081155212       -1.1106154282        1.9889881519
 C         -3.0127318726       -1.6960569321       -0.1411198147
 C         -2.1374788868       -2.6741988093       -0.5650041858
 C         -2.2735394019       -3.1861900802       -1.8450497308
 C         -3.2769348421       -2.7120136591       -2.6740340378
 C         -4.1492627925       -1.7292992981       -2.2321694453
 C         -4.0216437688       -1.2162811394       -0.9518217397
 H         -4.6773221313       -0.4470397037       -0.5787456280
 H         -4.9255170898       -1.3584989805       -2.8823193317
 H         -3.3753890497       -3.1077220058       -3.6728176738
 H         -1.5877807520       -3.9426900978       -2.1915120744
 H         -1.3568344879       -3.0013194957        0.1037973119
 H         -4.1816641218        0.5911806835        2.2508660278
 H         -3.6225045234        2.8789813697        2.6047533517
 H         -2.0808133772        4.7371269714        2.0963479470
 H         -0.2212847778        4.4087820742        0.5144973200
 H          1.0829654986        3.0179350976       -0.8041482234
 C         -0.0956216646        2.1017288832       -2.3319625926
 C         -0.4125713073        3.3793598095       -3.0477210841
 C          0.7944102707        2.5810057904       -3.4375806637
 H          0.7830136483        2.0454631344       -4.3747309137
 H          1.7680456105        2.9623032442       -3.1654099644
 H         -1.2570641764        3.3954594662       -3.7190126736
 H         -0.2558664578        4.3049559457       -2.5149748650
 H         -0.7200274741        1.2412321243       -2.5325832732
