  62
        -98.93990324
 C          2.0565208684        1.5726182743        0.0651555606
 C          1.8173863810        0.4069261322       -0.6979045284
 C          2.8971748663       -0.5983850796       -0.7141025517
 C          4.0377286089       -0.3573677548       -0.0412449531
 C          5.3130919298       -1.1650641826        0.0859572777
 C          5.3661370871       -2.6186945112       -0.3764111714
 C          4.5375613239       -3.5881999605        0.4674499366
 H          4.5390193723       -4.5614562827       -0.0279270709
 H          5.0293598492       -3.7083412770        1.4361297829
 C          3.0949903792       -3.1665446387        0.7362796577
 H          2.6404633068       -3.9241115684        1.3802663350
 H          3.0857820658       -2.2268116157        1.2921538960
 C          2.2109599857       -3.0192356098       -0.5000643626
 H          1.1918107371       -2.8321886909       -0.1519566987
 H          2.2125079662       -3.9528065205       -1.0661734698
 C          2.5901893929       -1.8710823204       -1.4489831417
 H          1.7246118159       -1.6534033007       -2.0814280842
 H          3.4111515419       -2.1515261291       -2.1039199743
 H          6.4117868547       -2.9302560123       -0.3039333529
 H          5.0914538895       -2.6887552374       -1.4248030964
 H          6.0758003741       -0.5996542430       -0.4610050931
 H          5.5949355679       -1.1147387434        1.1426580720
 O          4.2305348353        0.8006647328        0.6586046511
 C          3.2521353861        1.7730094055        0.7516189176
 O          3.5613558733        2.7509279466        1.4622212215
 O          0.7571986068        0.2087403185       -1.3454656608
 C          0.9856668314        2.6441542405        0.1739568065
 C         -0.2742510266        2.0157738481        0.7165936464
 C         -0.2304875471        1.4180683972        1.9740643490
 C         -1.3436016097        0.7910630875        2.4991447413
 C         -2.5241980194        0.7359534161        1.7778750335
 C         -2.5751152674        1.3221823074        0.5211195807
 C         -1.4590810930        1.9677281282        0.0021183958
 H         -1.5187371856        2.4164448653       -0.9765817876
 N         -3.7609341311        1.2589603324       -0.2273421668
 S         -4.6423154910       -0.1606803552       -0.2191647842
 O         -5.3763007131       -0.1506916973       -1.4656354120
 O         -5.4464788531       -0.2218189453        0.9769782560
 C         -3.4567869537       -1.4950552154       -0.2122765802
 C         -2.4928877147       -1.5318700063       -1.1998181825
 C         -1.5857281959       -2.5781723386       -1.2112642473
 C         -1.6573033531       -3.5660255016       -0.2411872440
 C         -2.6304895651       -3.5146565782        0.7446378476
 C         -3.5400910164       -2.4698028311        0.7614284505
 H         -4.3121117073       -2.3901763782        1.5097279632
 H         -2.6823603527       -4.2835493459        1.4987191607
 H         -0.9496638997       -4.3802878362       -0.2550629188
 H         -0.8219467809       -2.6085045090       -1.9714651351
 H         -2.4495377848       -0.7523424267       -1.9428170829
 H         -3.6805205090        1.6365226611       -1.1598538248
 H         -3.4028009322        0.2524329501        2.1728996185
 H         -1.2938492496        0.3359476580        3.4767365938
 H          0.6964844135        1.4481424468        2.5310846799
 H          1.3542382799        3.3706094668        0.9116695874
 C          0.8067000081        3.3480578829       -1.1545312608
 C          0.2133651767        4.7233856148       -1.1999253705
 C          1.6738319629        4.5271274435       -1.4728810876
 H          2.0308567188        4.6464573289       -2.4849060679
 H          2.3846881733        4.8381528936       -0.7211731172
 H         -0.4309931864        4.9829839824       -2.0264604332
 H         -0.0710502168        5.1752902524       -0.2617356231
 H          0.5819654695        2.6652944994       -1.9658477783
