  62
        -98.93842435
 C         -2.2304749994       -1.2247289112        0.2796951287
 C         -2.3903830298       -0.1402206313       -0.6131212414
 C         -3.2651436902        0.9617748784       -0.1663292315
 C         -3.8475302602        0.9037387282        1.0451212885
 C         -4.7309775606        1.8892477480        1.7815656584
 C         -5.3620244710        3.0725220077        1.0526843584
 C         -6.4303935908        2.6945076873        0.0271426683
 H         -7.3053995307        2.3164162470        0.5616165983
 H         -6.7304254411        3.6006120772       -0.5035771617
 C         -6.0198451704        1.6341622174       -0.9913389916
 H         -6.8743410703        1.4537971871       -1.6490786716
 H         -5.8054051701        0.6951105575       -0.4772892016
 C         -4.8269121005        2.0011486278       -1.8714368216
 H         -4.7426317202        1.2362947378       -2.6481003715
 H         -5.0127871708        2.9578300977       -2.3635706216
 C         -3.4701746305        2.0780867383       -1.1503432715
 H         -2.6817810705        1.9745776985       -1.9018494015
 H         -3.3306936009        3.0431161583       -0.6685679515
 H         -4.5918081912        3.6863747380        0.5948039284
 H         -5.8424314512        3.6883088776        1.8178946583
 H         -5.5221642104        1.2909254777        2.2445632884
 H         -4.1174603508        2.2760984682        2.6029618885
 O         -3.6528890799       -0.1582962117        1.8802797186
 C         -2.8573245595       -1.2304293714        1.5288822787
 O         -2.7915281992       -2.1219162913        2.3981924687
 H          0.2395350705       -0.7892567704       -1.4698796012
 C          0.7605648206       -1.2008425202       -0.6184263412
 C          0.0939320209       -2.0724258504        0.2310339388
 C          0.7679286910       -2.5594720901        1.3451119389
 C          2.0751182308       -2.1824693797        1.5982868089
 C          2.7334144206       -1.3080080895        0.7518949689
 C          2.0640797104       -0.8071322298       -0.3566097811
 N          2.7170258102        0.1047638204       -1.2104200412
 S          3.2952011096        1.5100085407       -0.4892244112
 O          2.5282616095        1.8586605104        0.6855988088
 O          3.3391161493        2.4968022906       -1.5464491212
 C          4.9618031598        1.0847055713       -0.0273396011
 C          5.8135658400        0.6289731315       -1.0146956010
 C          7.1147644601        0.2959574520       -0.6740946310
 C          7.5405950800        0.4262928322        0.6395969390
 C          6.6743029898        0.8887856819        1.6183485490
 C          5.3707560997        1.2225867315        1.2844917189
 H          4.6590614395        1.5793061612        2.0120407689
 H          7.0068094397        0.9896002621        2.6390118290
 H          8.5536368800        0.1656654425        0.9025099791
 H          7.7914626602       -0.0638845978       -1.4322752709
 H          5.4427618100        0.5458318413       -2.0225829811
 H          2.1616880201        0.3431350902       -2.0209819712
 H          3.7482177205       -1.0026424891        0.9489193189
 H          2.5854312009       -2.5693585995        2.4671655290
 H          0.2497416512       -3.2203137003        2.0250926989
 C         -1.3518415790       -2.4330763609       -0.0142406512
 H         -1.6379194788       -3.1909567810        0.7270380788
 C         -1.5710494587       -3.0109724011       -1.3979432812
 C         -1.1546575782       -4.4248069709       -1.6659710211
 C         -2.6094788184       -4.0732868614       -1.5894332312
 H         -3.1898575683       -4.0669721517       -2.4998574812
 H         -3.1668209083       -4.3900826016       -0.7196798212
 H         -0.7334038481       -4.6633157308       -2.6303810211
 H         -0.7253421381       -4.9823052208       -0.8473167011
 H         -1.4512627090       -2.2893873711       -2.1947404512
 O         -1.8352874398       -0.0625079612       -1.7429162613
