  62
        -98.93457963
 C         -1.9176030196       -0.8963990316        0.7291065301
 C         -2.0087701501       -0.2444553613       -0.5234364298
 C         -2.4428046906        1.1653095885       -0.4990904193
 C         -2.6412508005        1.7820179282        0.6792263209
 C         -3.0354634209        3.2092462180        0.9974856113
 C         -3.7085743815        4.0863593480       -0.0565069884
 C         -5.0831058214        3.6046174577       -0.5173164382
 H         -5.4299444518        4.2786323377       -1.3037229180
 H         -5.7806085213        3.6824799072        0.3203213520
 C         -5.1394480210        2.1695219378       -1.0357706685
 H         -6.1599760710        1.9780757075       -1.3780763384
 H         -4.9409390206        1.4752246476       -0.2165738787
 C         -4.1930832312        1.8538335084       -2.1934761888
 H         -4.3359578616        2.5817738785       -2.9940518486
 H         -4.4693800509        0.8702105484       -2.5821572890
 C         -2.6956279011        1.8028267588       -1.8342043691
 H         -2.2388699314        2.7890445089       -1.8761957890
 H         -2.1872398810        1.1769576191       -2.5733889094
 H         -3.0512425117        4.2204614584       -0.9105810385
 H         -3.8397302817        5.0709124279        0.4008928019
 H         -3.6842887407        3.1451454376        1.8767742814
 H         -2.1162929510        3.7075567782        1.3263140612
 O         -2.4367466701        1.1400257580        1.8679600707
 C         -2.0847874496       -0.1965984319        1.9239893903
 O         -1.9530177892       -0.6403532222        3.0836140801
 H          0.8110071905       -1.1211923607        1.0151005194
 C          0.8252211606       -1.8548865105        0.2203910692
 C         -0.3119025092       -2.6148407709       -0.0272667507
 C         -0.2787219091       -3.5503048106       -1.0520401709
 C          0.8623363808       -3.7000965900       -1.8210425612
 C          1.9822466006       -2.9242333297       -1.5891709313
 C          1.9622638605       -1.9921762300       -0.5563682410
 N          3.1000024803       -1.2143909296       -0.2738244511
 S          2.9046899599        0.3363385101        0.3578382793
 O          2.6361073902        0.2333159897        1.7714953594
 O          1.9514137995        1.0934567200       -0.4235270803
 C          4.5552572196        0.9663607708        0.1121904791
 C          4.8204654991        1.7993349911       -0.9579132407
 C          6.1181357289        2.2463317716       -1.1538612409
 C          7.1231963992        1.8517181017       -0.2838055112
 C          6.8414976497        1.0154744914        0.7865387287
 C          5.5463030199        0.5665441109        0.9890676688
 H          5.2765698803       -0.0766549194        1.8103574087
 H          7.6247153900        0.7123210915        1.4624078684
 H          8.1320692691        2.1996784421       -0.4395092813
 H          6.3391969985        2.8985429619       -1.9832916208
 H          4.0053702689        2.0834063510       -1.6041808605
 H          3.7709869701       -1.2181439392       -1.0303677012
 H          2.8647550405       -3.0327186893       -2.2011702615
 H          0.8735261809       -4.4221992898       -2.6234304914
 H         -1.1547526390       -4.1387514708       -1.2695846209
 C         -1.5153829691       -2.3568050115        0.8452351596
 H         -1.1958739988       -2.4774349316        1.8945043995
 C         -2.6546861388       -3.3398367018        0.6219622896
 C         -4.0693599689       -2.9595973523        0.9403697900
 C         -3.6540167991       -3.1771872919       -0.4819802901
 H         -4.0070866289       -4.0649803519       -0.9860538803
 H         -3.5494005495       -2.3199085417       -1.1272145999
 H         -4.2496109192       -1.9475290225        1.2738597103
 H         -4.7043031085       -3.6941305727        1.4125588100
 H         -2.3645412584       -4.3557113718        0.8722929393
 O         -1.7541552102       -0.8001485010       -1.6231956800
