  62
        -98.93916807
 C         -2.7639621758       -0.7159696714        0.5042986936
 C         -2.3664287975       -0.1023990647       -0.7105609594
 C         -2.6456107638        1.3384142956       -0.8235973461
 C         -3.2576739784        1.9781925656        0.1883738658
 C         -3.5748322222        3.4446433188        0.2150192818
 C         -2.4406733269        4.2505779498        0.8625251274
 C         -1.0532288447        3.9260344343        0.3078808585
 H         -0.3391591113        4.5850543677        0.8065964269
 H         -0.7787053138        2.9034571338        0.5789584341
 C         -0.9196796420        4.0900075050       -1.2120809151
 H         -1.7289298021        4.7153610168       -1.5920269386
 H          0.0198840642        4.6039843147       -1.4245986224
 C         -0.8856973453        2.7727899162       -1.9900084580
 H         -0.1380157147        2.1072525898       -1.5466825434
 H         -0.5569820553        2.9894191561       -3.0104710311
 C         -2.2204584046        2.0221833492       -2.0919653071
 H         -2.9979581925        2.7042025142       -2.4436008656
 H         -2.0964102735        1.2279083541       -2.8341763000
 H         -2.4371497493        4.0443971552        1.9353123269
 H         -2.6487096437        5.3126071654        0.7208474203
 H         -4.4868944809        3.5870984991        0.7972980350
 H         -3.7457667767        3.7908922273       -0.8022856209
 O         -3.6236012538        1.3572846238        1.3392310104
 C         -3.3529127429        0.0128843264        1.5396997636
 O         -3.6763925177       -0.4106233814        2.6676673388
 O         -1.8104254999       -0.7135538270       -1.6591677827
 C         -2.4663115685       -2.1798683765        0.7895880220
 C         -1.0503043137       -2.4836658632        0.3631601095
 C         -0.6958232581       -3.5037697282       -0.5085396613
 C          0.6245799908       -3.6739380762       -0.8896718447
 C          1.6151545164       -2.8327414480       -0.4183223565
 C          1.2710228890       -1.8140581211        0.4586410144
 C         -0.0455340553       -1.6597946815        0.8559821306
 H         -0.3095049911       -0.8541996976        1.5332876615
 N          2.2745365959       -0.9257372687        0.9178387941
 S          2.7894165625        0.2248563234       -0.2157631204
 O          2.2038731735        1.5028535390        0.1334345984
 O          2.5551320489       -0.2625059164       -1.5497662175
 C          4.5406319013        0.2617926595        0.1127523829
 C          5.0555738841        1.2015118631        0.9835030183
 C          6.4129974223        1.1827711490        1.2641365582
 C          7.2265924702        0.2263742378        0.6762935385
 C          6.6946125570       -0.7108290118       -0.1968166173
 C          5.3388282655       -0.6957549716       -0.4815020481
 H          4.8828204189       -1.3968964675       -1.1610453763
 H          7.3302029440       -1.4516003315       -0.6546787341
 H          8.2820648022        0.2125210900        0.8978493198
 H          6.8297555858        1.9122352762        1.9399129165
 H          4.3879528885        1.9316095013        1.4116005549
 H          1.9703865220       -0.4155347053        1.7370143252
 H          2.6400553695       -2.9383956199       -0.7336501426
 H          0.8813676040       -4.4653734095       -1.5774646365
 H         -1.4574261412       -4.1464989849       -0.9186890951
 H         -2.5147306049       -2.2698684606        1.8880374669
 C         -3.4929134794       -3.1532444516        0.2311091903
 C         -4.9084507448       -2.7258240141       -0.0143344149
 C         -4.0125496303       -3.0495350234       -1.1700678131
 H         -4.1948910580       -3.9627341737       -1.7175795398
 H         -3.6414427513       -2.2410977684       -1.7796163946
 H         -5.7012156017       -3.4153736524        0.2341096981
 H         -5.1578523903       -1.6903213425        0.1674322339
 H         -3.3590343258       -4.1542514963        0.6293671279
