  62
        -98.93626416
 C         -1.2703064735       -1.2905143388        0.7195447963
 C         -2.1103901537       -1.0302278782       -0.3893776544
 C         -2.8156010475        0.2689225171       -0.3851257947
 C         -2.5973842723        1.1509715677        0.6051463648
 C         -3.1109908831        2.5599140350        0.8162043112
 C         -4.3439064736        3.0635121480        0.0694607285
 C         -5.6473029020        2.3482110058        0.4207825284
 H         -5.9084007901        2.5852640060        1.4551250155
 H         -6.4355621434        2.7466744144       -0.2217930326
 C         -5.6198365553        0.8277101894        0.2863424299
 H         -4.9314505591        0.4068088231        1.0220081342
 H         -6.6181928765        0.4529344358        0.5276842973
 C         -5.2473627176        0.3004387186       -1.0985912460
 H         -5.8879988830        0.7616642520       -1.8525710508
 H         -5.4454728869       -0.7746996268       -1.1040244136
 C         -3.7777366701        0.4988417881       -1.5141133388
 H         -3.5369328672       -0.2455736194       -2.2789213347
 H         -3.6137720678        1.4788573242       -1.9573810070
 H         -4.4608215552        4.1165298746        0.3405396965
 H         -4.1725494344        3.0324397017       -1.0027031576
 H         -3.2821523376        2.6543238663        1.8933547569
 H         -2.2691579945        3.2194259807        0.5750179653
 O         -1.7436488817        0.8735364860        1.6338394701
 C         -1.0710814346       -0.3313801056        1.7136096102
 O         -0.3296695895       -0.4359983921        2.7124964530
 H          0.4407651266       -1.0046736019       -1.1708305710
 C          1.2579082096       -1.4186881845       -0.5994276716
 C          1.0009747419       -2.2417353479        0.4875896112
 C          2.0766316676       -2.7511211283        1.2058212534
 C          3.3759597272       -2.4472338754        0.8396881295
 C          3.6259458952       -1.6001856909       -0.2252119249
 C          2.5567668611       -1.0744375831       -0.9400390362
 N          2.7549159015       -0.1543826436       -1.9927746942
 S          2.1325595439        1.3811744559       -1.7236890040
 O          0.6958061031        1.3319558077       -1.6538171864
 O          2.6995391976        2.2034925843       -2.7705034620
 C          2.8223891852        1.8459804344       -0.1463081687
 C          2.1650807957        1.4707259692        1.0075058902
 C          2.7497789666        1.7464783978        2.2333187615
 C          3.9763986581        2.3903120982        2.2838611451
 C          4.6229732250        2.7662209278        1.1154461163
 C          4.0462898422        2.4865336728       -0.1127302411
 H          4.5113448050        2.7627130625       -1.0454289769
 H          5.5748482857        3.2705543427        1.1585597495
 H          4.4283981615        2.6002573585        3.2403465428
 H          2.2350580308        1.4439637393        3.1316772535
 H          1.2111242886        0.9712611678        0.9419284671
 H          3.7214246274       -0.0719026464       -2.2793564823
 H          4.6374848626       -1.3382352714       -0.4962590030
 H          4.2016298151       -2.8540298878        1.4027612824
 H          1.8885362000       -3.3731916112        2.0682952862
 C         -0.4233026871       -2.5436922580        0.8847819063
 H         -0.4176009413       -2.7614549758        1.9660160372
 C         -0.9803818480       -3.7695163737        0.1783180825
 C         -0.4313516703       -4.2799770894       -1.1162405445
 C         -0.2000855319       -5.0504494342        0.1468702893
 H         -0.7332739106       -5.9779275008        0.2903443195
 H          0.7974864149       -5.0439924807        0.5581007179
 H         -1.1334549478       -4.6577093013       -1.8433794798
 H          0.4012095515       -3.7513649269       -1.5551061891
 H         -2.0529881560       -3.8581893530        0.3115560864
 O         -2.2843377239       -1.8206343923       -1.3516292261
