  62
        -98.93990554
 C         -2.2359876390       -1.0796103897       -0.4531700320
 C         -3.5040204952       -0.8871608851        0.1532080675
 C         -4.2526830029        0.3042068754       -0.2637642950
 C         -3.7124728291        1.1300075777       -1.1780690914
 C         -4.3335676599        2.4134031538       -1.6470669836
 C         -3.8689543580        3.5995534719       -0.7905421570
 C         -3.9865752576        3.3584610345        0.7145885055
 H         -3.2878838909        2.5694246043        1.0036262485
 H         -3.6612624537        4.2727701871        1.2156897851
 C         -5.3981933531        2.9879011817        1.1909384195
 H         -6.1299766221        3.2679580509        0.4324858456
 H         -5.6258087090        3.5640085876        2.0901986641
 C         -5.5796719563        1.5119245417        1.5497161978
 H         -4.7887568436        1.2025968543        2.2376102766
 H         -6.5322397441        1.4044148158        2.0751201661
 C         -5.5972026991        0.5354442857        0.3669969252
 H         -5.9215254259       -0.4384119261        0.7448765641
 H         -6.3190328629        0.8731619544       -0.3791372729
 H         -4.4564391483        4.4766980628       -1.0680231923
 H         -2.8208509394        3.8037534175       -1.0228037789
 H         -4.0312158296        2.5834888062       -2.6817065064
 H         -5.4172432983        2.3228610324       -1.6045239535
 O         -2.5027995490        0.9071206159       -1.7512237585
 C         -1.7255162768       -0.1902398774       -1.3996984896
 O         -0.6421391098       -0.2502810200       -2.0115725843
 H          1.1578709016       -1.4355670680       -0.4936227060
 C          0.8949934643       -1.4123623953        0.5512139059
 C         -0.3679578725       -1.8069836547        0.9690743635
 C         -0.6844577328       -1.7217779197        2.3227174713
 C          0.2410737512       -1.2550399437        3.2363925516
 C          1.4987518967       -0.8605303331        2.8167327718
 C          1.8246861753       -0.9386511468        1.4673679968
 N          3.1104675182       -0.5725420602        1.0288441821
 S          3.2535025118        0.2996728488       -0.4137483439
 O          2.3306218541        1.4126002190       -0.4092848850
 O          3.1871118346       -0.6161872531       -1.5225917642
 C          4.9278539434        0.8942132535       -0.2398473568
 C          5.1502420044        2.1699091030        0.2429487407
 C          6.4551473952        2.6088993375        0.4041373469
 C          7.5104268000        1.7677705099        0.0850156492
 C          7.2720333681        0.4899020307       -0.3988535684
 C          5.9697113036        0.0458103823       -0.5637333291
 H          5.7344551866       -0.9341381031       -0.9447956665
 H          8.0948036108       -0.1603130900       -0.6485854809
 H          8.5248441145        2.1115228746        0.2113925755
 H          6.6428703244        3.6029858519        0.7767730836
 H          4.2981001161        2.7908227396        0.4690853906
 H          3.6464595651       -0.1234174470        1.7604352649
 H          2.2243010263       -0.4939965608        3.5273128088
 H         -0.0187160930       -1.1937435382        4.2824472824
 H         -1.6744239405       -2.0128164621        2.6445967411
 C         -1.4245195234       -2.2830917475        0.0009585463
 H         -2.1334515626       -2.9061554683        0.5643331264
 C         -0.8690978506       -3.1058398131       -1.1409617534
 C         -0.4185445049       -4.5088183585       -0.8679586391
 C         -1.6659883898       -4.2631635411       -1.6610163410
 H         -1.6521369233       -4.4604117387       -2.7224374927
 H         -2.6174861490       -4.4658943268       -1.1913224071
 H          0.4560266983       -4.8762257474       -1.3825015776
 H         -0.5245489169       -4.8779809307        0.1410248009
 H         -0.3090582798       -2.5272333047       -1.8646387067
 O         -3.9894396828       -1.6804587303        1.0037807441
