  62
        -98.93549863
 C         -1.7794725210       -0.4138142977        0.3523254814
 C         -2.9941289510       -0.9144624847        0.8895461940
 C         -4.1940982010       -0.1065302159        0.6531744797
 C         -4.0891718108        1.0609295205       -0.0063546966
 C         -5.2119976108        2.0213301691       -0.2914915418
 C         -6.0283472207        1.6759222224       -1.5443440300
 C         -6.9473450008        0.4614923032       -1.4067457035
 H         -7.5685614108        0.5767530480       -0.5180415942
 H         -7.6130277508        0.4640523586       -2.2721408336
 C         -6.2120986609       -0.8849730365       -1.3529158363
 H         -6.7041247609       -1.5954730401       -2.0210083325
 H         -5.1907873509       -0.7565463185       -1.7189066369
 C         -6.1636038210       -1.5257419691        0.0342382471
 H         -7.1760272110       -1.7794586273        0.3560253484
 H         -5.5902461311       -2.4534617495       -0.0370771679
 C         -5.5137098510       -0.6490340734        1.1128445525
 H         -5.3297113211       -1.2684515187        1.9939180558
 H         -6.1835840110        0.1645380882        1.3902672281
 H         -6.6443398507        2.5464392012       -1.7816364847
 H         -5.3392867907        1.5199941479       -2.3776636091
 H         -5.8749603508        2.0757856338        0.5725672879
 H         -4.7518455707        3.0007274583       -0.4395837870
 O         -2.9049146108        1.5227505279       -0.4837698290
 C         -1.7266956708        0.7925219086       -0.3478203550
 O         -0.7446463708        1.3358052457       -0.8813670179
 O         -3.0705831411       -1.9902880112        1.5418939098
 C         -0.5306389110       -1.2562364965        0.5815570360
 C          0.5051682490       -0.4706300625        1.3464455619
 C          0.4466731089       -0.5419295250        2.7391384522
 C          1.3159283889        0.1797762391        3.5331706984
 C          2.2816190190        0.9858484060        2.9579774142
 C          2.3495132491        1.0728533986        1.5727580137
 C          1.4711155491        0.3471914144        0.7764896175
 H          1.5281759291        0.4899090087       -0.2866137432
 N          3.3057421492        1.8983967853        0.9720603193
 S          3.9226059392        1.6540292871       -0.5508558993
 O          5.1500458293        2.4254289271       -0.5470128034
 O          2.9715830193        2.0050030817       -1.5741699913
 C          4.3329313891       -0.0789581435       -0.6719186900
 C          4.1652004591       -0.7090396900       -1.8883976467
 C          4.5384332991       -2.0375395107       -2.0165538095
 C          5.0685837190       -2.7124568350       -0.9284302959
 C          5.2294649889       -2.0671369985        0.2880489707
 C          4.8649635590       -0.7365591177        0.4197593735
 H          4.9861054390       -0.2136523727        1.3541985507
 H          5.6384731189       -2.5948281840        1.1345446035
 H          5.3561938689       -3.7470538855       -1.0279878103
 H          4.4097304591       -2.5388896258       -2.9619958369
 H          3.7361102692       -0.1504500244       -2.7045905697
 H          3.9657028991        2.3400360686        1.5929876070
 H          2.9641074790        1.5546577092        3.5708463912
 H          1.2457447688        0.1111728749        4.6080387088
 H         -0.3081785512       -1.1657886526        3.1968159655
 H         -0.8834749411       -2.0416094828        1.2694992002
 C         -0.1140224510       -2.0104173133       -0.6740417099
 C          0.5851392591       -1.4467186897       -1.8731553029
 C          1.3050663390       -2.3945298949       -0.9612363078
 H          1.5076841589       -3.3927110868       -1.3184397825
 H          2.0691178390       -1.9937100415       -0.3137068699
 H          0.2696774991       -1.8150437049       -2.8397482510
 H          0.8491858892       -0.4023133599       -1.8918440385
 H         -0.8659562010       -2.7619974445       -0.9044799660
