  62
        -98.94671823
 C         -1.9882004430       -1.4578556426       -0.0767073824
 C         -1.7150014073       -0.2277141325       -0.7194368239
 C         -2.8670975033        0.6640313956       -0.9123299667
 C         -4.0870842479        0.2600345712       -0.5137509145
 C         -5.3357316174        1.0876880771       -0.6045451275
 C         -5.5579942650        1.9032920713        0.6771902386
 C         -4.3224390553        2.6737683783        1.1429178210
 H         -4.6071656390        3.2335083139        2.0364539678
 H         -3.5503838699        1.9613379998        1.4426020474
 C         -3.7430706607        3.6382666584        0.0986211327
 H         -4.4883602162        3.8427550565       -0.6708475541
 H         -3.5140307777        4.5870660560        0.5882216178
 C         -2.4512286850        3.1541739448       -0.5627459386
 H         -1.7394142981        2.8502096365        0.2093804282
 H         -2.0133514650        3.9954981427       -1.1068843619
 C         -2.6069581755        1.9963522448       -1.5570500973
 H         -3.3882331713        2.2349405614       -2.2814817136
 H         -1.6611885140        1.8872067120       -2.0963699530
 H         -6.3802077914        2.6000773797        0.5042492126
 H         -5.8553396605        1.2190937269        1.4753325342
 H         -5.2623944700        1.7525627392       -1.4629990367
 H         -6.1837206862        0.4160477556       -0.7486936484
 O         -4.3154862487       -0.9451319443        0.0689829414
 C         -3.2744271423       -1.8242731529        0.3192242430
 O         -3.6152688723       -2.8793304893        0.8910903207
 H          1.8661709669       -2.1312953384       -0.2894464688
 C          1.5378823206       -1.6884751525        0.6353882057
 C          0.2086503905       -1.7476346683        1.0216440193
 C         -0.1629356383       -1.1550337925        2.2269508396
 C          0.7685570185       -0.5109456258        3.0169238847
 C          2.0918070580       -0.4349139436        2.6165833125
 C          2.4744532153       -1.0262564135        1.4197376685
 N          3.8165180326       -0.9855422500        0.9950672881
 S          4.1925027667       -0.3114790192       -0.4923345223
 O          3.5390248406       -1.0447356969       -1.5439623759
 O          5.6393466366       -0.2958738316       -0.5283437005
 C          3.5873012631        1.3639458193       -0.3939534012
 C          4.4826356174        2.3638844266       -0.0637574022
 C          4.0202805464        3.6617032111        0.0778131701
 C          2.6727274706        3.9357801980       -0.1034582888
 C          1.7885454147        2.9198734764       -0.4299149984
 C          2.2430082363        1.6178091143       -0.5771169710
 H          1.5631343895        0.8198235231       -0.8306799268
 H          0.7388220281        3.1220200431       -0.5729928074
 H          2.3091107423        4.9451263721        0.0090529496
 H          4.7082759692        4.4526861159        0.3298373429
 H          5.5215316851        2.1045753689        0.0626091829
 H          4.4490748073       -0.6148022015        1.6908764245
 H          2.8217260598        0.0740746436        3.2278767580
 H          0.4631092382       -0.0576465017        3.9478839157
 H         -1.1992469618       -1.2086081779        2.5335356930
 C         -0.8551792143       -2.4310312226        0.1972569521
 H         -1.2884160915       -3.2420551505        0.8008190444
 C         -0.3382951767       -3.0160367614       -1.1000275041
 C          0.3052655429       -4.3688359721       -1.1087624228
 C         -1.0558964203       -4.1819886329       -1.7074436285
 H         -1.1585564156       -4.2220696256       -2.7815871692
 H         -1.9098402790       -4.5717166369       -1.1721321600
 H          1.1412631119       -4.5354868745       -1.7715626713
 H          0.3773932714       -4.8942943648       -0.1683434931
 H          0.0521585380       -2.2643643587       -1.7771809943
 O         -0.5686287142        0.1133049676       -1.1099767706
