  62
        -98.93731378
 C          2.6586372401        0.4708448836       -0.1130028564
 C          2.1229985297        1.4373857598       -0.9971874811
 C          1.3572178574        2.5251042616       -0.3804460599
 C          1.2242066766        2.5672218305        0.9574218787
 C          0.4687161143        3.6029886679        1.7450786386
 C         -1.0613775666        3.5756967721        1.5539183352
 C         -1.5802515917        4.5751460225        0.5117515996
 H         -2.5086281163        5.0151228608        0.8815311048
 H         -0.8607906601        5.3902762584        0.4214851236
 C         -1.8780542988        4.0015699561       -0.8772195299
 H         -2.8447787531        3.4934586075       -0.8492608060
 H         -1.9638131847        4.8376046365       -1.5752137672
 C         -0.8534952923        3.0045820451       -1.4188906686
 H         -1.0844633439        2.8114613746       -2.4693313468
 H         -0.9589180335        2.0517967125       -0.8931730508
 C          0.6152039672        3.4585509915       -1.2926099366
 H          1.1072397934        3.4077743729       -2.2661959499
 H          0.6736324076        4.4828703942       -0.9280512843
 H         -1.3693897620        2.5583660405        1.3076409889
 H         -1.5086346771        3.8233314233        2.5181951750
 H          0.7023753901        3.4040712359        2.7928536460
 H          0.8541480014        4.5940295118        1.4950466043
 O          1.8013319387        1.6492946889        1.7779572841
 C          2.4602917074        0.5433694572        1.2660897253
 O          2.8342775912       -0.2737721762        2.1302074551
 O          2.2597398021        1.3779682881       -2.2508563174
 C          3.2709922048       -0.7919445517       -0.7016615137
 C          2.2787292219       -1.8960524703       -0.4239524358
 C          2.5586136557       -3.0523368446        0.2901684109
 C          1.5414815349       -3.9312882198        0.6280952673
 C          0.2286205735       -3.6715405471        0.2775246384
 C         -0.0520007665       -2.5345220729       -0.4658288788
 C          0.9672574917       -1.6747912515       -0.8287165393
 H          0.7322084497       -0.7795681662       -1.3915920824
 N         -1.4075577048       -2.2038856886       -0.7688207630
 S         -2.0084909526       -1.2155224016        0.4752766940
 O         -1.3689044562        0.0830921435        0.4428868921
 O         -1.9073508913       -1.9525768837        1.7086693358
 C         -3.7187492069       -1.0584107654       -0.0041365025
 C         -4.5716223431       -2.1169560698        0.2424164949
 C         -5.8934976368       -2.0192278827       -0.1611840977
 C         -6.3371340682       -0.8722777083       -0.8030254253
 C         -5.4688651081        0.1813609783       -1.0445872839
 C         -4.1449428484        0.0889033924       -0.6443378170
 H         -3.4354441451        0.8849348166       -0.8074147170
 H         -5.8156635862        1.0723162689       -1.5428824436
 H         -7.3666264453       -0.7979750814       -1.1158485446
 H         -6.5721811424       -2.8357403605        0.0253858210
 H         -4.1819053394       -2.9832618072        0.7503231937
 H         -1.4530249870       -1.6535843212       -1.6192120811
 H         -0.5766213803       -4.3186631688        0.5835421401
 H          1.7737807941       -4.8176713637        1.1987727089
 H          3.5686290491       -3.2517546174        0.6094286923
 H          3.3133566186       -0.6213790591       -1.7871849193
 C          4.6658261544       -1.0612069400       -0.1881062819
 C          5.5961843090       -1.9267925274       -0.9833662272
 C          5.8340097770       -0.4499421684       -0.9002275790
 H          6.6643702966       -0.0915547171       -0.3108943962
 H          5.6250739500        0.1528607169       -1.7718805730
 H          6.2677080620       -2.5843942784       -0.4528388576
 H          5.2284936110       -2.3290188224       -1.9151494662
 H          4.7109622138       -1.1148388106        0.8931510036
