  62
        -98.94340439
 C         -1.1161046675       -1.2899954972       -0.1326629133
 C         -1.9159247517       -0.8634143289        0.9600381660
 C         -2.8123109811        0.2718938816        0.7118985612
 C         -2.7980477393        0.8644363037       -0.4955361165
 C         -3.7039261589        1.9860260617       -0.9125380924
 C         -4.9885448791        1.4480145544       -1.5585331901
 C         -5.6799808065        0.3563611686       -0.7415183706
 H         -6.5914094399        0.0787383300       -1.2754928246
 H         -5.0411198508       -0.5294427650       -0.7161387801
 C         -6.0339698324        0.7655064631        0.6952367427
 H         -6.0206479689        1.8522478459        0.7854675336
 H         -7.0523581209        0.4360172757        0.9118750651
 C         -5.1313179698        0.1555862135        1.7695656814
 H         -5.0712144599       -0.9261740811        1.6257169962
 H         -5.5969582146        0.3298426771        2.7432591916
 C         -3.7037324660        0.7129289077        1.8383594101
 H         -3.7396320771        1.8023727845        1.9012887702
 H         -3.2430381314        0.3296855195        2.7533901347
 H         -5.6758980188        2.2826747768       -1.7078502638
 H         -4.7380214117        1.0352149752       -2.5384767965
 H         -3.9542868735        2.5910830807       -0.0432418961
 H         -3.1757199431        2.6047608540       -1.6394156546
 O         -1.9778981995        0.4690953999       -1.4986923811
 C         -1.1273256681       -0.6184831531       -1.3557324777
 O         -0.4558248180       -0.8586621778       -2.3774508519
 O         -1.8883949151       -1.4201195901        2.0894610103
 C         -0.2459162952       -2.5141290361        0.1023814982
 C          1.1532443945       -2.1084789679        0.4840463707
 C          1.7285678604       -2.5295973056        1.6765870687
 C          3.0027195642       -2.1175538713        2.0310184491
 C          3.7269016559       -1.2752323797        1.2058535831
 C          3.1566337057       -0.8471039079        0.0143281503
 C          1.8837640069       -1.2638850425       -0.3417435311
 H          1.4463243740       -0.9248486081       -1.2693401962
 N          3.8697626737        0.0524007545       -0.8159404698
 S          3.9447588746        1.6129229864       -0.2105394396
 O          4.4937161588        2.4273017432       -1.2698270461
 O          4.6844074694        1.5860832800        1.0251664508
 C          2.2513409402        2.0799709730        0.1055500530
 C          1.6349670432        1.6313966202        1.2572030441
 C          0.3077481692        1.9615208876        1.4774164700
 C         -0.3728186803        2.7387723590        0.5533554273
 C          0.2570955400        3.1740326856       -0.6017664414
 C          1.5797652749        2.8345940034       -0.8347311731
 H          2.1075812183        3.1532769817       -1.7194814541
 H         -0.2786788581        3.7723287231       -1.3211532815
 H         -1.4015321725        3.0041114401        0.7366413654
 H         -0.1936133935        1.6054019288        2.3635522465
 H          2.1974916166        1.0436135168        1.9642654451
 H          3.4893379657        0.0920303991       -1.7525275130
 H          4.7090042778       -0.9230443790        1.4758319005
 H          3.4349904776       -2.4519515367        2.9617725015
 H          1.1638806228       -3.1711502305        2.3370539248
 H         -0.6959573447       -3.0072654545        0.9781014417
 C         -0.2946378878       -3.5066111272       -1.0525166866
 C          0.8863661213       -3.8621445588       -1.9008677020
 C          0.3568983734       -4.8504482631       -0.9084329652
 H         -0.1657881712       -5.7232787802       -1.2691011031
 H          0.9429184591       -5.0221369751       -0.0179630681
 H          0.7109737790       -4.0335472055       -2.9521502681
 H          1.8334184404       -3.3900691484       -1.6922639254
 H         -1.2536178415       -3.4870036832       -1.5607391913
