  62
        -98.93957827
 C         -1.2582559654       -1.5644983178       -0.3483232641
 C         -2.5048405067       -1.5641322714        0.3258811362
 C         -3.4182521439       -0.4565341049        0.0092747638
 C         -3.0233657378        0.4844292520       -0.8677366525
 C         -3.8040220175        1.7147930331       -1.2360976160
 C         -3.7046012620        2.7658676080       -0.1121565464
 C         -5.0288395944        3.0666326085        0.5900901845
 H         -4.7997404890        3.6504830342        1.4841764914
 H         -5.6435460338        3.6910586825       -0.0617027761
 C         -5.8627666223        1.8466425893        0.9918692207
 H         -6.4037106252        1.4687050576        0.1229504238
 H         -6.6178466091        2.1961981890        1.6992732098
 C         -5.0884402065        0.6865124160        1.6306714698
 H         -4.1650136878        1.0437327680        2.0867422338
 H         -5.7001018415        0.2729575854        2.4352100082
 C         -4.7686196889       -0.4746828311        0.6709902652
 H         -4.7886062047       -1.4099926340        1.2382272083
 H         -5.5476467851       -0.5398256254       -0.0939660376
 H         -3.3215889407        3.7030318869       -0.5192868898
 H         -2.9758834827        2.4143984846        0.6207711947
 H         -3.3792084956        2.1032922816       -2.1618538289
 H         -4.8430120808        1.4480393075       -1.4175576760
 O         -1.8147482014        0.4574189769       -1.4836801642
 C         -0.9036971262       -0.5620347841       -1.2517179596
 O          0.1487306633       -0.4567832000       -1.9080422581
 H          2.0922319629       -1.7316545617       -1.0203684304
 C          2.0076910851       -1.6143156616        0.0479346373
 C          0.8824557716       -2.0838602719        0.7083600270
 C          0.7924202969       -1.8968009929        2.0847926240
 C          1.8019989910       -1.2568011081        2.7798200310
 C          2.9133066952       -0.7690896235        2.1136030227
 C          3.0037960886       -0.9390930341        0.7389617294
 N          4.1072643736       -0.3974643500        0.0424181992
 S          4.2545896769        1.2713609430        0.1175552854
 O          5.1762721155        1.6248914941       -0.9384960614
 O          4.6518120069        1.6407457119        1.4535137446
 C          2.6319767347        1.9211694635       -0.2347461823
 C          1.7390665097        2.1095472054        0.8006393001
 C          0.4667634716        2.5720268030        0.5078857011
 C          0.1122761178        2.8392906737       -0.8047287391
 C          1.0198541356        2.6420338828       -1.8324593245
 C          2.2907953721        2.1729258509       -1.5476839284
 H          3.0249750264        2.0066279662       -2.3197282942
 H          0.7354071410        2.8385077275       -2.8535111141
 H         -0.8808271886        3.1938366615       -1.0296535592
 H         -0.2452016461        2.7183449973        1.3052995001
 H          2.0522046904        1.8988222756        1.8102210607
 H          4.1243096328       -0.6786788768       -0.9286048518
 H          3.6976288993       -0.2409684966        2.6314384969
 H          1.7210374338       -1.1277594845        3.8486097079
 H         -0.0892400770       -2.2483199935        2.6022026449
 C         -0.2809218212       -2.6873161743       -0.0365680650
 H         -0.8172380618       -3.3593235872        0.6461832968
 C          0.1158364130       -3.4657577633       -1.2730024982
 C          0.7876067818       -4.7961079764       -1.1151693748
 C         -0.6236563151       -4.7233487749       -1.6136440385
 H         -0.8163514445       -4.9416437716       -2.6533965052
 H         -1.4175449969       -5.0321282933       -0.9494978787
 H          1.5661781648       -5.0680887107       -1.8114355917
 H          0.9526467907       -5.1539996662       -0.1101729017
 H          0.4227881622       -2.8377195057       -2.1000820564
 O         -2.8410047908       -2.4561433608        1.1501977706
