  62
        -98.93517315
 C         -1.8120308811       -1.4774362410       -0.2983695873
 C         -1.8499957092       -0.0677745293       -0.2070212764
 C         -3.1722245635        0.5404017012        0.0416169872
 C         -4.2419782928       -0.2598645073        0.1977730362
 C         -5.6782562452        0.1220960817        0.4529387350
 C         -5.9245392093        1.2278886501        1.4910165916
 C         -6.4126533556        2.5412265742        0.8768693899
 H         -7.1176941513        2.3090907914        0.0758526412
 H         -6.9594138615        3.1012245954        1.6389238855
 C         -5.3134264677        3.4527666087        0.3339168067
 H         -5.7989791928        4.2746430927       -0.1976262841
 H         -4.7604842034        3.8884916404        1.1690421588
 C         -4.3129913130        2.7816399341       -0.6091023320
 H         -4.8257598167        2.1011450251       -1.2879396181
 H         -3.8592875129        3.5625758650       -1.2230039834
 C         -3.1810919129        2.0427214032        0.1203517494
 H         -2.2162078794        2.3453928017       -0.2978995318
 H         -3.1568878318        2.3415901745        1.1723705195
 H         -5.0219078173        1.3954113666        2.0767274463
 H         -6.6933986961        0.8727166143        2.1792279511
 H         -6.1371873980        0.3993249172       -0.4994341586
 H         -6.1642507726       -0.8023040701        0.7735427055
 O         -4.1531583316       -1.6192176925        0.1139946101
 C         -2.9542404967       -2.2592682231       -0.1399486215
 O         -3.0314391482       -3.5038252563       -0.1921481168
 H          2.1847465565       -1.6749900746       -0.9094746823
 C          1.8672415845       -1.6006738736        0.1192765501
 C          0.5397364262       -1.8254143002        0.4528901940
 C          0.1706663081       -1.7339877724        1.7920414776
 C          1.0956854479       -1.4011248374        2.7631892349
 C          2.4169812277       -1.1659928292        2.4247545480
 C          2.8004064611       -1.2704529597        1.0954751253
 N          4.1509183858       -1.0405715868        0.7532166092
 S          4.7309277565        0.5247403746        0.9029100041
 O          6.1330639927        0.4579613572        0.5590372227
 O          4.4155349269        1.0148156128        2.2194858991
 C          3.8547413657        1.4524930680       -0.3435454881
 C          2.5064174420        1.6921827681       -0.1688182979
 C          1.8047441042        2.3352808476       -1.1760141968
 C          2.4618507861        2.7346029195       -2.3294824002
 C          3.8192920916        2.4954862990       -2.4859295002
 C          4.5228389993        1.8391375611       -1.4892833627
 H          5.5756232954        1.6219443627       -1.5722185024
 H          4.3271684496        2.8101184632       -3.3836345178
 H          1.9105446961        3.2330855177       -3.1115763993
 H          0.7443275342        2.4852498133       -1.0540475241
 H          2.0108668211        1.3719382048        0.7332877205
 H          4.3959001175       -1.3926779769       -0.1623331367
 H          3.1479254330       -0.8875424392        3.1658521903
 H          0.7868550044       -1.3263453858        3.7951858854
 H         -0.8601935413       -1.9190561051        2.0630458068
 C         -0.4997111961       -2.1836238850       -0.5817227215
 H         -0.7096419619       -3.2600897004       -0.4939573647
 C         -0.0565570037       -1.8865976421       -2.0007679554
 C          0.7050349819       -2.9071265040       -2.7910882056
 C         -0.7239795735       -2.6098281836       -3.1302280372
 H         -0.9386478233       -2.0655522439       -4.0374926887
 H         -1.4759547189       -3.3417376794       -2.8724170366
 H          1.4711892058       -2.5671053299       -3.4719732216
 H          0.9242017194       -3.8505683504       -2.3138523126
 H          0.1827144512       -0.8393798988       -2.1483338824
 O         -0.8302998565        0.6576122336       -0.3309472641
