  62
        -98.93367509
 C          1.6925353794        0.2312522053        0.4437320655
 C          2.7791892837        0.9992925367       -0.0383095099
 C          3.9118176001        0.2486196791       -0.6187484263
 C          3.8549274570       -1.0927743555       -0.6994358478
 C          4.8242035193       -2.1021675412       -1.2786449402
 C          6.2635950130       -1.7092800570       -1.6008862238
 C          7.1246020576       -1.3768869889       -0.3827020501
 H          8.0931931027       -1.0176021376       -0.7373361038
 H          7.2979266867       -2.2966551128        0.1817605326
 C          6.5359331415       -0.3492785454        0.5807796115
 H          7.2497103587       -0.2100162779        1.3973206183
 H          5.6175180991       -0.7429016995        1.0209906786
 C          6.2477497002        1.0238200465       -0.0231127222
 H          7.1496461633        1.4124980807       -0.5001032968
 H          5.9882493570        1.6964520286        0.7989566878
 C          5.0948310166        1.0717856789       -1.0406573659
 H          5.4303189133        0.7824531693       -2.0338022042
 H          4.7431528500        2.1059021629       -1.1029162513
 H          6.2806814964       -0.8902908386       -2.3140093323
 H          6.7165947242       -2.5707982706       -2.0992482377
 H          4.8322054493       -2.9423955326       -0.5769326270
 H          4.3537731762       -2.4726666180       -2.1963464844
 O          2.7649227091       -1.7885481291       -0.2624847828
 C          1.6821201916       -1.1599876309        0.3222865838
 O          0.7814908179       -1.9386845787        0.6918523392
 H         -2.2028606481        0.7910002051        1.4152048096
 C         -1.9183866495        1.2021384401        0.4564657814
 C         -0.5727295365        1.3022444036        0.1262649083
 C         -0.2335479857        1.8298607953       -1.1133565483
 C         -1.2145829546        2.2247451106       -2.0064634892
 C         -2.5534661592        2.1083181520       -1.6799814624
 C         -2.9041825788        1.6003933684       -0.4369997123
 N         -4.2772955995        1.4697094192       -0.1232352967
 S         -5.0613177833        0.1789695629       -0.8551927762
 O         -4.7540686732        0.1936497999       -2.2611869990
 O         -6.4547257905        0.2973951468       -0.4936007736
 C         -4.3514283270       -1.2502976020       -0.0587725950
 C         -3.0612432718       -1.6186577461       -0.3879040438
 C         -2.4496223604       -2.6345658366        0.3304209445
 C         -3.1452904309       -3.2721640631        1.3469014024
 C         -4.4471894794       -2.9043866187        1.6529741189
 C         -5.0534322675       -1.8723797655        0.9551307367
 H         -6.0558358174       -1.5390450673        1.1708887059
 H         -4.9834303436       -3.4080235510        2.4413188002
 H         -2.6612010162       -4.0580744925        1.9051221163
 H         -1.4233040684       -2.8929302982        0.1208031296
 H         -2.5502716493       -1.1100529704       -1.1899727993
 H         -4.4605234412        1.4405442266        0.8707486279
 H         -3.3302679356        2.3873665363       -2.3726085717
 H         -0.9312957812        2.6254875861       -2.9680763090
 H          0.8074056802        1.9337986010       -1.3767594269
 C          0.4719303664        0.8351753505        1.1149237507
 H          0.0241674757        0.0203771390        1.7014894960
 C          0.8202591544        1.9688231347        2.0631538310
 C         -0.0117648580        2.2002777248        3.2865393178
 C          1.3759467155        1.6489479124        3.4167858465
 H          2.1538158815        2.2818500837        3.8161957111
 H          1.4872226825        0.6057431924        3.6758646241
 H         -0.8362506569        1.5293892722        3.4742105712
 H         -0.1931681531        3.2172649544        3.5986366098
 H          1.2227592439        2.8356249275        1.5552859858
 O          2.8235407152        2.2574572853       -0.0138033428
