  62
        -98.94269488
 C         -1.6218573663       -1.4736603102        0.2350721630
 C         -1.3201120110       -0.3732106302       -0.5994781770
 C         -1.9854447295        0.8946483899       -0.2706685993
 C         -2.7991755938        0.9465532134        0.7992981354
 C         -3.5862408570        2.1478290308        1.2407058789
 C         -4.8148580179        2.3474368565        0.3304988401
 C         -4.7809859491        3.6307822295       -0.4993969568
 H         -5.5746356722        3.5592788563       -1.2460607056
 H         -5.0124929172        4.4785671627        0.1487188746
 C         -3.4555825490        3.9286317365       -1.2062928914
 H         -3.6565947326        4.7071602653       -1.9452943373
 H         -2.7455418689        4.3509976348       -0.4934993429
 C         -2.7924034405        2.7381792083       -1.9103970861
 H         -2.3683550007        3.0943691082       -2.8512728061
 H         -3.5333631031        1.9790150268       -2.1612949464
 C         -1.6414223155        2.0846275538       -1.1232895110
 H         -0.9016031505        1.7101978062       -1.8372148094
 H         -1.1408391263        2.8344580949       -0.5028225836
 H         -4.8915194922        1.4839217784       -0.3332847095
 H         -5.7199228351        2.3572198569        0.9396725525
 H         -3.8988246412        1.9683259842        2.2698962317
 H         -2.9446900874        3.0265475332        1.2239445977
 O         -3.0621596358       -0.1325088768        1.5825794122
 C         -2.4682780859       -1.3589760590        1.3348936664
 O         -2.7698323068       -2.2548534545        2.1514949254
 H          0.4873798588       -1.2149904084        1.6036701250
 C          1.1217872263       -1.7349848880        0.9001998789
 C          0.5619063577       -2.6127944214       -0.0194085196
 C          1.4081763163       -3.2749557956       -0.9004716287
 C          2.7720225571       -3.0386112866       -0.8764299566
 C          3.3171371994       -2.1232858720        0.0053590677
 C          2.4797411818       -1.4639313141        0.8973900991
 N          2.9755106705       -0.5019512370        1.8036441315
 S          2.4388450616        1.0741807921        1.5992277670
 O          3.1546617035        1.8435033522        2.5955347350
 O          1.0014002741        1.1226923470        1.6681866345
 C          3.0256218520        1.5273105177       -0.0239168977
 C          2.3424261005        1.0897588401       -1.1407049518
 C          2.8586672158        1.3866401773       -2.3933730576
 C          4.0379848468        2.1057196922       -2.5084650137
 C          4.7118663901        2.5365966149       -1.3753497270
 C          4.2055613708        2.2407688263       -0.1204877120
 H          4.6921277442        2.5556167515        0.7886942810
 H          5.6282607877        3.0973405371       -1.4655597992
 H          4.4327214954        2.3311218810       -3.4866465343
 H          2.3289510693        1.0465353219       -3.2688379713
 H          1.4234398155        0.5343930070       -1.0320503135
 H          3.9844642378       -0.4946934331        1.8735514264
 H          4.3769639855       -1.9173455050        0.0055315377
 H          3.4162340297       -3.5600351483       -1.5676584004
 H          0.9976794240       -3.9726938482       -1.6119922267
 C         -0.9360020057       -2.8059801994       -0.0060418467
 H         -1.1957460776       -3.4438976669        0.8519629932
 C         -1.4664838844       -3.4478454248       -1.2723704819
 C         -1.5480372503       -4.9393798989       -1.3923099506
 C         -2.7991625481       -4.1310341220       -1.2304500556
 H         -3.4610825119       -4.0246470765       -2.0767258863
 H         -3.3095740225       -4.1578262802       -0.2783343784
 H         -1.2161815793       -5.5286388132       -0.5508261671
 H         -1.3544469427       -5.3910596631       -2.3536023333
 H         -1.2264863138       -2.8728158696       -2.1593661899
 O         -0.5223567710       -0.4474849159       -1.5720955222
