  62
        -98.94067357
 C         -1.5219537419       -1.2017160697       -0.0122709292
 C         -2.6129375305       -0.9347304970        0.8504590923
 C         -3.3627233747        0.3095486355        0.6087645808
 C         -2.9717662204        1.1332040678       -0.3814126695
 C         -3.4931108766        2.4883436772       -0.8119146549
 C         -4.8655750218        2.9779806756       -0.3566857242
 C         -6.0462510276        2.1787928735       -0.9059993658
 H         -6.1149691320        2.3529608333       -1.9828645628
 H         -6.9603700436        2.5639929701       -0.4488165178
 C         -5.9797046494        0.6693830735       -0.6862623257
 H         -5.1334066877        0.2548031818       -1.2379108459
 H         -6.8858352653        0.2297891124       -1.1121305444
 C         -5.8886452434        0.2235380968        0.7721608233
 H         -6.0204427841       -0.8616568669        0.7917270127
 H         -6.7052416265        0.6685254338        1.3439132464
 C         -4.5608920604        0.5411816720        1.4831364799
 H         -4.4596812721       -0.1429441936        2.3305435367
 H         -4.5565877999        1.5535079632        1.8801305095
 H         -4.9651569804        4.0044143520       -0.7202507684
 H         -4.9103840209        3.0228093802        0.7273998092
 H         -2.7435426711        3.2161335342       -0.4816580744
 H         -3.4602702850        2.4856298758       -1.9060539575
 O         -1.9032301735        0.8404653763       -1.1778354683
 C         -1.1655860252       -0.3241869870       -1.0340293895
 O         -0.2474531630       -0.4425784075       -1.8675064705
 H          1.5988457101       -2.0770946286       -1.2099773797
 C          1.7144532765       -1.8165972100       -0.1702994401
 C          0.6594629986       -1.9963621757        0.7102521255
 C          0.8335862506       -1.6307431780        2.0424910368
 C          2.0323265845       -1.0984122754        2.4790335348
 C          3.0741300811       -0.8923462624        1.5907607472
 C          2.9033940871       -1.2427024727        0.2584320253
 N          3.9312423919       -0.9764796616       -0.6649631557
 S          4.6105411629        0.5522044103       -0.5958187623
 O          5.0184888257        0.8553527841       -1.9503104172
 O          5.6697495274        0.5567169851        0.3843886804
 C          3.3155230310        1.6645139608       -0.0661303221
 C          2.1032862383        1.6547807012       -0.7266972912
 C          1.1070405700        2.5224177151       -0.3084679957
 C          1.3369191552        3.3845443958        0.7520249211
 C          2.5625051914        3.3874044279        1.4000901103
 C          3.5608711002        2.5188755424        0.9904119885
 H          4.5244435440        2.4805383070        1.4722469738
 H          2.7401433791        4.0591570636        2.2244103112
 H          0.5562436981        4.0555079216        1.0747638691
 H          0.1535612231        2.5028992155       -0.8133308725
 H          1.9210215661        0.9712254007       -1.5410129456
 H          3.6805846963       -1.2082570893       -1.6156636630
 H          4.0096548590       -0.4589104723        1.9060096891
 H          2.1546553765       -0.8272768576        3.5164352277
 H          0.0077848470       -1.7544826156        2.7288681963
 C         -0.6973597128       -2.4543301695        0.2381971186
 H         -1.1971345775       -2.9744881710        1.0656821281
 C         -0.6582085248       -3.3723383731       -0.9646477001
 C         -0.1615208788       -4.7764903994       -0.7970883938
 C         -1.6174313802       -4.5204740992       -1.0419314630
 H         -2.0327945517       -4.7801161929       -2.0042375943
 H         -2.3056685370       -4.6534261574       -0.2201890418
 H          0.1407287537       -5.0812826749        0.1934152628
 H          0.4246165898       -5.2158851371       -1.5897744146
 H         -0.4292598119       -2.8610505684       -1.8918037931
 O         -2.9443299925       -1.7020628383        1.7925872249
