  62
        -98.93797686
 C         -2.4699676533       -0.8320816085        0.8117959352
 C         -3.5315164580       -0.8900492763       -0.1242697887
 C         -4.6139610230        0.0874051451        0.0731555490
 C         -4.5393427364        0.9692725305        1.0855594547
 C         -5.5423361418        2.0511033415        1.3604213862
 C         -5.1680364935        3.3539902549        0.6399578425
 C         -4.8334009009        3.1680516622       -0.8400753459
 H         -4.6148720769        4.1562437444       -1.2506783909
 H         -3.9196970384        2.5753835811       -0.9280842598
 C         -5.9467151249        2.5068963566       -1.6645605538
 H         -6.8941477604        2.5730279728       -1.1283991700
 H         -6.0642866808        3.0583464747       -2.5997754311
 C         -5.6773682603        1.0482481423       -2.0386361752
 H         -4.6869608594        0.9630269706       -2.4930843310
 H         -6.4102018838        0.7499864694       -2.7931750270
 C         -5.7681660117        0.0376614244       -0.8884145762
 H         -5.7508220858       -0.9646818858       -1.3260965992
 H         -6.7150029757        0.1654127498       -0.3599794176
 H         -4.2956533553        3.7856917360        1.1359295728
 H         -5.9984689019        4.0550179646        0.7416484663
 H         -6.5267220754        1.7161672055        1.0393537775
 H         -5.5637685853        2.2344295039        2.4359921739
 O         -3.4991315158        1.0038368653        1.9570805482
 C         -2.4449795155        0.1172494673        1.8381831367
 O         -1.5546873907        0.2647850653        2.7005930359
 O         -3.5987641722       -1.7082363712       -1.0785657420
 C         -1.2716571112       -1.7680818634        0.7633593497
 C         -0.2827357529       -1.2891057191       -0.2731174873
 C         -0.5041715435       -1.4594101458       -1.6351146439
 C          0.4244509050       -1.0065929911       -2.5549842685
 C          1.5859528677       -0.3773785465       -2.1423709346
 C          1.8133558303       -0.1961469471       -0.7846860388
 C          0.8816519445       -0.6550557521        0.1373204112
 H          1.0527736233       -0.5031877772        1.1954548890
 N          2.9857135015        0.4619252225       -0.3511545042
 S          4.4466329704       -0.2072019467       -0.8831736266
 O          4.6073957733        0.0985204174       -2.2814711242
 O          4.5066753869       -1.6093278370       -0.5301189983
 C          5.6226031966        0.7230853031        0.0789687835
 C          5.9755609933        1.9888309706       -0.3484049063
 C          6.8764173592        2.7228165532        0.4064588102
 C          7.4058460806        2.1825201287        1.5691119372
 C          7.0424820573        0.9104475103        1.9846605914
 C          6.1408798601        0.1714181139        1.2349406437
 H          5.8383470084       -0.8250700313        1.5149043897
 H          7.4576661779        0.4917766485        2.8873015498
 H          8.1083696716        2.7550955769        2.1538580299
 H          7.1637209036        3.7111910281        0.0858773788
 H          5.5467521589        2.3638103151       -1.2628262833
 H          3.0059154956        0.5388304467        0.6580938071
 H          2.3207390376       -0.0346775402       -2.8524423251
 H          0.2421720325       -1.1449293988       -3.6103175436
 H         -1.4172511632       -1.9291480394       -1.9656253117
 H         -0.7896648813       -1.6775976680        1.7462786433
 C         -1.6503860610       -3.2205644547        0.5531827957
 C         -0.6402620073       -4.2804192015        0.8704956746
 C         -1.8447589992       -4.1061661536        1.7451739230
 H         -2.6220855322       -4.8544947238        1.7088330346
 H         -1.7061954042       -3.6682380266        2.7232045056
 H         -0.5875879718       -5.1491281476        0.2324272590
 H          0.3177280588       -3.9597744427        1.2524890894
 H         -2.3011770954       -3.3825726366       -0.2950051514
