  62
        -98.94008741
 C         -0.6557201468       -1.6933227791       -0.4932538503
 C         -1.7932076451       -1.9325414548        0.3198745335
 C         -2.9646561611       -1.0675979740        0.1109800920
 C         -2.9119188889       -0.1064023327       -0.8295838288
 C         -3.9714714567        0.8579878031       -1.3190935662
 C         -5.2013571399        1.1658407409       -0.4675843486
 C         -4.9125850543        1.8665330139        0.8589030182
 H         -5.8537586197        1.9537548989        1.4064398267
 H         -4.5566030925        2.8784277185        0.6514062692
 C         -3.8801243100        1.1841020734        1.7527565165
 H         -3.7922124919        1.7726095103        2.6698833858
 H         -2.9038398046        1.1970702176        1.2643657383
 C         -4.2123786804       -0.2518932133        2.1555115496
 H         -5.2105138462       -0.2905600575        2.5961641146
 H         -3.4954417063       -0.5504271584        2.9249621327
 C         -4.1338349898       -1.2940741069        1.0247441384
 H         -5.0609550677       -1.3359661165        0.4575757216
 H         -3.9835586349       -2.2772843444        1.4797935710
 H         -5.7769304383        0.2607839352       -0.2964639768
 H         -5.8315084154        1.8319164047       -1.0635010248
 H         -4.3134335117        0.4602512359       -2.2813615638
 H         -3.4433057433        1.7890684311       -1.5408505238
 O         -1.7959488850        0.0918171204       -1.5860116106
 C         -0.6456118038       -0.6679578775       -1.4374482589
 O          0.2740803624       -0.3182912832       -2.2032977744
 O         -1.8350072172       -2.8541121169        1.1791363986
 C          0.5361166821       -2.6067801086       -0.2697749629
 C          1.5287856166       -2.0079068518        0.6984023790
 C          1.9584013785       -2.7262746067        1.8079432055
 C          2.8831042287       -2.1823182661        2.6814494686
 C          3.3889228300       -0.9135737664        2.4681884383
 C          2.9577798966       -0.1819295588        1.3653135889
 C          2.0370264243       -0.7339336763        0.4861669048
 H          1.7257589356       -0.1730271062       -0.3804408134
 N          3.4143545887        1.1214847746        1.1668133786
 S          3.1832618000        2.0071164220       -0.2194316350
 O          3.5761925755        1.2780831615       -1.4014395216
 O          3.9289388462        3.2250012812        0.0311176804
 C          1.4494070827        2.4072404502       -0.2354397515
 C          0.7990031657        2.6130969931        0.9651178004
 C         -0.5278451349        3.0095644213        0.9479137239
 C         -1.1754054893        3.2013750877       -0.2627147793
 C         -0.5104456674        2.9859633415       -1.4587529032
 C          0.8163830808        2.5855919663       -1.4479748660
 H          1.3619338570        2.3889285398       -2.3568657553
 H         -1.0167878868        3.1191622630       -2.4016198311
 H         -2.2062207323        3.5200812529       -0.2708355552
 H         -1.0527098677        3.1695902074        1.8763409555
 H          1.3301511667        2.4578907910        1.8897637480
 H          4.1562395387        1.4525001353        1.7621895494
 H          4.1079785802       -0.4856647527        3.1494474437
 H          3.2124920501       -2.7504481453        3.5380024054
 H          1.5553175741       -3.7116986217        1.9882430399
 H          0.1214916505       -3.5112896567        0.1970363617
 C          1.2479662786       -3.0119285206       -1.5459567632
 C          1.9996715000       -4.3073617323       -1.5815103138
 C          0.7208754002       -4.1608462537       -2.3495616494
 H          0.7650512475       -4.0978954195       -3.4264156457
 H         -0.1576808348       -4.6680762681       -1.9777823903
 H          2.9282162776       -4.3467778050       -2.1301297108
 H          1.9877439011       -4.9198587760       -0.6927169273
 H          1.6651324162       -2.1731856466       -2.0889602839
