  62
        -98.94482322
 C          1.9806293398        1.0835926648       -0.2828186186
 C          3.0822892876        1.1787441271        0.6095762692
 C          4.3224540153        0.5204355211        0.1888650521
 C          4.3700489972       -0.1117021908       -0.9974120236
 C          5.5679111215       -0.8064252647       -1.5856030602
 C          5.7646647463       -2.2447769024       -1.0875039085
 C          6.2567723203       -2.3718175254        0.3547994304
 H          6.5610975027       -3.4104163185        0.4989968191
 H          7.1431420087       -1.7514292692        0.4910137789
 C          5.2066239332       -2.0136922260        1.4158196061
 H          4.2125348203       -2.0206511120        0.9622683173
 H          5.2045764637       -2.7760591481        2.1981674835
 C          5.4293784157       -0.6642235683        2.0987939061
 H          6.3596295157       -0.6922559375        2.6704875413
 H          4.6077367847       -0.4962008882        2.7996813264
 C          5.4835223512        0.5294388892        1.1365022531
 H          5.4246269606        1.4477917610        1.7257253309
 H          6.4239637824        0.5264008684        0.5857814748
 H          4.8222698261       -2.7860984788       -1.1997611842
 H          6.4994591509       -2.7184583441       -1.7426804725
 H          5.4113704631       -0.8348941200       -2.6661419750
 H          6.4661563222       -0.2233707207       -1.3800673524
 O          3.3006602070       -0.1701748767       -1.8316245279
 C          2.0813347406        0.4017957767       -1.4953826345
 O          1.2030012795        0.2293583693       -2.3656030152
 O          3.0315140560        1.7989525572        1.7044191783
 C          0.6937059151        1.7639470008        0.1545465530
 C         -0.2963439700        0.7650334281        0.7043533902
 C         -0.6424126457        0.7739543214        2.0505301292
 C         -1.5600640483       -0.1341546242        2.5502434875
 C         -2.1526808297       -1.0659115160        1.7177329932
 C         -1.8102741282       -1.0841139094        0.3713428360
 C         -0.8951350589       -0.1696614604       -0.1288483640
 H         -0.6232516685       -0.1985179666       -1.1734063102
 N         -2.4182224918       -2.0213064650       -0.4845518807
 S         -4.0908143249       -2.0980408398       -0.4308902166
 O         -4.4980935819       -2.9366268540        0.6694695452
 O         -4.5025862198       -2.5401259520       -1.7447133698
 C         -4.6143426642       -0.4179638874       -0.1340675833
 C         -4.2898970085        0.5382247424       -1.0761104709
 C         -4.6421698255        1.8566644889       -0.8404115715
 C         -5.3061349962        2.1959741217        0.3285423266
 C         -5.6287476077        1.2236485873        1.2619842906
 C         -5.2783220026       -0.0972640123        1.0321168711
 H         -5.5058500099       -0.8842839513        1.7323589881
 H         -6.1469158409        1.4900581434        2.1690250283
 H         -5.5730251777        3.2249268798        0.5107370662
 H         -4.3933850259        2.6138020232       -1.5665432277
 H         -3.7744508080        0.2424658592       -1.9760707502
 H         -2.0867314776       -1.9656357998       -1.4368137609
 H         -2.8674874084       -1.7835594321        2.0869593642
 H         -1.8167909318       -0.1164239233        3.5982810035
 H         -0.1755975118        1.4919244385        2.7088886305
 H          0.9911849386        2.4247541035        0.9796102970
 C          0.0631097852        2.6109397216       -0.9342398803
 C         -0.9292463534        3.6651009722       -0.5489838253
 C          0.4305897444        4.0592351197       -1.0404096012
 H          0.5206758230        4.4962978507       -2.0236370868
 H          1.1400967123        4.4486971831       -0.3249512251
 H         -1.7765491525        3.8338551636       -1.1949699788
 H         -1.1446183178        3.7877777008        0.5013222212
 H         -0.1034011458        2.0735112950       -1.8584506513
