  62
        -98.94356926
 C         -1.7539080070        1.1847167002       -0.3906485552
 C         -1.8942889736        0.1620173424        0.5784303161
 C         -3.2719098473       -0.1288392017        1.0020970907
 C         -4.2879217943        0.5812178020        0.4788454268
 C         -5.7399429135        0.3484828840        0.7788460502
 C         -6.3602460126       -0.6405877443       -0.2180580256
 C         -5.5423378177       -1.9176209372       -0.4117318534
 H         -4.5906703003       -1.6639778042       -0.8845893511
 H         -6.0901861699       -2.5509190475       -1.1130155625
 C         -5.2716477905       -2.7007010294        0.8805424554
 H         -5.4532966498       -3.7608267684        0.6913969333
 H         -5.9700927176       -2.3862564995        1.6569208064
 C         -3.8403266826       -2.5806872149        1.4072919708
 H         -3.1336517119       -2.8037487456        0.6037692140
 H         -3.7008151027       -3.3359606059        2.1852657893
 C         -3.4650807909       -1.2228316002        2.0140183178
 H         -2.4998648104       -1.3387262009        2.5152560779
 H         -4.2086776523       -0.9339949266        2.7594408745
 H         -6.4529222614       -0.1435616488       -1.1865875957
 H         -7.3629169516       -0.8974359043        0.1286247268
 H         -5.8398840263       -0.0315238660        1.7936032719
 H         -6.2644260131        1.3025379837        0.7041670089
 O         -4.1095895700        1.5710858153       -0.4338296905
 C         -2.8444540011        1.8866818682       -0.9022010128
 O         -2.8228733146        2.7936648769       -1.7594495556
 H          2.1176094947        0.4644097688       -0.4312460517
 C          1.5450369723       -0.1030225966       -1.1436154131
 C          0.2757957407        0.3160018617       -1.5059244882
 C         -0.4287687647       -0.4276329099       -2.4497485045
 C          0.1203912893       -1.5686266882       -3.0007180533
 C          1.3825772753       -1.9934588630       -2.6233746535
 C          2.0967207953       -1.2561076744       -1.6867624284
 N          3.3531104956       -1.6885104302       -1.2530750761
 S          4.4983318511       -0.6608064495       -0.6188494116
 O          4.6061803910        0.5608699990       -1.3824871938
 O          5.6987894292       -1.4670921373       -0.5535165678
 C          3.9370660744       -0.3028308477        1.0327525031
 C          4.1421945421        0.9638681946        1.5430169707
 C          3.7179819900        1.2459419636        2.8315119868
 C          3.1010187975        0.2593140633        3.5849051925
 C          2.9092410690       -1.0096036416        3.0606746248
 C          3.3324507463       -1.2982596917        1.7733855025
 H          3.1879977340       -2.2715378555        1.3351062448
 H          2.4234923688       -1.7725004332        3.6473938107
 H          2.7643903754        0.4819498830        4.5852961374
 H          3.8652160036        2.2327538756        3.2410982164
 H          4.6162987695        1.7032665625        0.9166797337
 H          3.7435711461       -2.4863488406       -1.7295713650
 H          1.8080826897       -2.8910419085       -3.0453715139
 H         -0.4383491414       -2.1358451586       -3.7301988099
 H         -1.4178036039       -0.0988913322       -2.7405224319
 C         -0.3728214600        1.5417634470       -0.9104981456
 H         -0.5277295349        2.2739548730       -1.7165592076
 C          0.4449269148        2.1894953204        0.1874679070
 C          1.5421704878        3.1496117558       -0.1566319335
 C          0.2697776221        3.6530125695        0.4541854980
 H          0.2892949343        3.9965432038        1.4773388843
 H         -0.4241585299        4.1921056566       -0.1745473190
 H          1.7222103326        3.3504483556       -1.2021153764
 H          2.4364515768        3.1473591865        0.4476324135
 H          0.5848405912        1.5382823237        1.0430997981
 O         -0.9247290586       -0.4753012096        1.0639152753
