  62
        -98.93758051
 C          1.4577193268        0.7925171886       -0.0316597120
 C          2.7366339876        1.3933461752        0.0095855469
 C          3.8492502576        0.5103451392        0.3855743838
 C          3.6035084387       -0.7780634908        0.6848933097
 C          4.6083090686       -1.8014444704        1.1449306691
 C          5.6980573207       -2.1937929485        0.1287307016
 C          7.0031999581       -1.3996022276        0.2629495761
 H          7.0821689269       -1.0232156612        1.2836538217
 H          7.8448510617       -2.0792200492        0.1141756824
 C          7.1847509042       -0.2421483119       -0.7237519608
 H          8.0080774429        0.3785770133       -0.3635249889
 H          7.4786310569       -0.6447734932       -1.6958712247
 C          5.9585781239        0.6432229825       -0.9472584492
 H          6.2737011247        1.5272566699       -1.5053577661
 H          5.2381777879        0.1200561308       -1.5805226094
 C          5.2369192956        1.0809265861        0.3421817168
 H          5.8044477948        0.7807583860        1.2219134079
 H          5.1279922185        2.1673606585        0.3571600556
 H          5.3012835055       -2.1070914327       -0.8823549145
 H          5.9233355978       -3.2478870538        0.2983635844
 H          5.0816571310       -1.4402230903        2.0608089913
 H          4.0232678407       -2.6874369040        1.3993644871
 O          2.3525604677       -1.3132095359        0.6455677415
 C          1.2515966040       -0.5522693437        0.2787346627
 O          0.1742848156       -1.1734238699        0.2748076120
 H         -2.4582650029        1.1604298122       -0.6379926918
 C         -2.1254392440        1.2894466359        0.3771201110
 C         -0.7958075980        1.5611774463        0.6552876319
 C         -0.4221578984        1.7718664820        1.9806224860
 C         -1.3511200197        1.6849610980        2.9984005780
 C         -2.6711608760        1.3744395099        2.7202455728
 C         -3.0577931533        1.1792522954        1.4004869974
 N         -4.3890236883        0.8827850066        1.0850316587
 S         -4.7914718320        0.0068914224       -0.2756293428
 O         -4.6928899444        0.8412002376       -1.4477015453
 O         -6.1149737539       -0.5024653510        0.0171265010
 C         -3.6376708616       -1.3479677124       -0.3875566867
 C         -3.4806983321       -2.1779831822        0.7033462753
 C         -2.6022946424       -3.2441092553        0.6116094077
 C         -1.9020786147       -3.4639332512       -0.5633035438
 C         -2.0753425797       -2.6254327480       -1.6516648769
 C         -2.9500245799       -1.5555852017       -1.5648091741
 H         -3.1077089705       -0.8740097448       -2.3862860090
 H         -1.5236537367       -2.7949870298       -2.5630803101
 H         -1.2106654069       -4.2890011549       -0.6292045970
 H         -2.4587257876       -3.8961222491        1.4582864828
 H         -4.0412280924       -1.9858301681        1.6040356575
 H         -4.9883863295        0.6764534415        1.8695687860
 H         -3.3949767680        1.2895324764        3.5160493421
 H         -1.0447398279        1.8484342415        4.0207335946
 H          0.6123600889        1.9971854644        2.2017538774
 C          0.2556932352        1.6313750220       -0.4234156911
 H          0.6229429628        2.6664479735       -0.4882632647
 C         -0.2542897024        1.2048698161       -1.7840830102
 C         -0.9739068195        2.1810174552       -2.6644170222
 C          0.4119832669        1.7331044747       -3.0174315419
 H          0.5427655000        1.0689390433       -3.8585793186
 H          1.2250434848        2.4313454301       -2.8819198004
 H         -1.8032900708        1.8282665178       -3.2595696325
 H         -1.1026551800        3.1868046893       -2.2936707339
 H         -0.5797758012        0.1700387144       -1.7946315220
 O          2.9385198288        2.6126838771       -0.2409316463
