  62
        -98.94367734
 C         -1.4848751253       -1.3784731192       -0.3088125775
 C         -0.4027074882       -1.7587081476       -1.1325899038
 C          0.6343846431       -2.6035102009       -0.5147257973
 C          0.5384559842       -2.9144183187        0.7915419579
 C          1.4192677782       -3.7725790993        1.6755105146
 C          2.8335082985       -4.1510625174        1.2437587329
 C          3.8075213747       -2.9782250949        1.1570438911
 H          4.7694108973       -3.3609420901        0.8073971314
 H          3.9549894417       -2.5677059686        2.1592438676
 C          3.3699698853       -1.8336963656        0.2460708092
 H          4.1773333119       -1.0954173381        0.2249452759
 H          2.4999695137       -1.3310847312        0.6770569566
 C          3.0691634719       -2.2424237236       -1.1955471738
 H          3.9011720290       -2.8320317541       -1.5855941225
 H          3.0055846535       -1.3275778050       -1.7884558690
 C          1.7637033660       -3.0330290329       -1.4087748299
 H          1.9303607784       -4.1035087684       -1.3040216605
 H          1.4235846273       -2.8545190322       -2.4331655359
 H          2.8116414906       -4.6927768240        0.3027819441
 H          3.2140152551       -4.8418101896        2.0012470801
 H          0.8533072801       -4.6935510383        1.8567750940
 H          1.4685487759       -3.2460893170        2.6342869788
 O         -0.5112694169       -2.4973702954        1.5565358123
 C         -1.5350227014       -1.7229351930        1.0408815695
 O         -2.4198364283       -1.4257440524        1.8669625954
 O         -0.3045310937       -1.4141624831       -2.3422474846
 C         -2.5836573280       -0.4936758735       -0.8737298332
 C         -2.6443755029        0.7768415119       -0.0616119193
 C         -3.8097572629        1.3118564020        0.4687349033
 C         -3.7529154517        2.4346318326        1.2777087752
 C         -2.5442115253        3.0288464354        1.5890038000
 C         -1.3727146015        2.5118274785        1.0441788320
 C         -1.4412212792        1.4218395558        0.1954598143
 H         -0.5345052559        1.0206758912       -0.2269439325
 N         -0.1276879924        3.0872426551        1.3279366972
 S          1.2979108441        2.2134571831        1.2495155619
 O          1.1188090234        0.8174890558        1.5719611312
 O          2.2046152199        2.9523153488        2.1040167130
 C          1.8049475470        2.4322486925       -0.4429059487
 C          1.8219680298        1.3653938556       -1.3166644512
 C          2.1928850225        1.5810368492       -2.6347061576
 C          2.5446896066        2.8545475510       -3.0530525052
 C          2.5313943292        3.9167581657       -2.1608343768
 C          2.1563745817        3.7069637604       -0.8442285029
 H          2.1373395889        4.5018067699       -0.1174332822
 H          2.8081924137        4.9056177396       -2.4891618123
 H          2.8307856574        3.0177285801       -4.0801062442
 H          2.1898236440        0.7513622025       -3.3242309794
 H          1.5395779687        0.3853240044       -0.9641469075
 H         -0.1244653086        3.7675920572        2.0726120984
 H         -2.5016075700        3.8790135215        2.2526121979
 H         -4.6638588562        2.8380366680        1.6936587537
 H         -4.7584486916        0.8412227976        0.2691493373
 H         -2.2688786693       -0.2448776751       -1.8979561029
 C         -3.8978883643       -1.2423761646       -0.9309425703
 C         -4.9323360989       -0.8759183385       -1.9519345402
 C         -4.1635520391       -2.1545510877       -2.0896141106
 H         -4.6730220345       -3.0881680282       -1.9039881299
 H         -3.4030250230       -2.2172158782       -2.8540427372
 H         -5.9738326042       -0.9336760399       -1.6738700679
 H         -4.6999448598       -0.0698278768       -2.6310067070
 H         -4.2329503755       -1.5657283777        0.0485127321
