  62
        -98.93562511
 C          2.6444888949        1.0316949734        0.7482612948
 C          2.5692129357       -0.2663201241        1.3159777807
 C          3.6859307316       -1.1738796197        1.0288740286
 C          4.7015577961       -0.7380375089        0.2616728326
 C          5.8804724017       -1.5680309751       -0.1549526773
 C          5.6184629025       -2.2740696261       -1.4925223405
 C          4.2784637203       -3.0076714136       -1.5524005129
 H          3.4673082965       -2.2767340356       -1.5068070440
 H          4.2162657607       -3.4925963047       -2.5291478010
 C          4.0779092697       -4.0552763779       -0.4483476372
 H          3.6675363859       -4.9621422468       -0.8975201915
 H          5.0403475178       -4.3182977305       -0.0079069656
 C          3.1122239836       -3.6319550951        0.6602209223
 H          2.1778902244       -3.2770441510        0.2166246712
 H          2.8744017302       -4.5153133934        1.2590199139
 C          3.6307953290       -2.5540060526        1.6205465956
 H          4.6086520024       -2.8467409833        2.0083788337
 H          2.9313482899       -2.4923063341        2.4593745640
 H          5.6337352498       -1.5257357383       -2.2882315292
 H          6.4300324770       -2.9808364881       -1.6747693025
 H          6.7431847173       -0.9089321361       -0.2653565911
 H          6.0925487695       -2.3020195354        0.6200280098
 O          4.7431677443        0.5103624495       -0.2643102045
 C          3.7135133562        1.4233261591       -0.0586724273
 O          3.8912967283        2.5109507957       -0.6351828479
 O          1.6091786430       -0.6422289036        2.0425276110
 C          1.4792630604        1.9608311323        1.0406088432
 C          0.4091105653        1.7712430665       -0.0041411465
 C          0.6903693512        1.9303422837       -1.3579266512
 C         -0.2948621305        1.7207187052       -2.3051927585
 C         -1.5723953742        1.3439298388       -1.9275017164
 C         -1.8586135040        1.1659963120       -0.5809632669
 C         -0.8686499050        1.3848892277        0.3700818708
 H         -1.0887344800        1.2304639605        1.4177951740
 N         -3.1552795190        0.7888562990       -0.1814195347
 S         -3.9004036211       -0.4561388810       -1.0510703445
 O         -3.0032431018       -1.5835613256       -1.1753323131
 O         -4.4018088017        0.0897724116       -2.2872444368
 C         -5.2609860747       -0.8492403198        0.0294689077
 C         -5.1372250012       -1.8984806724        0.9201829172
 C         -6.1923296956       -2.1799637296        1.7739390582
 C         -7.3442244224       -1.4092573160        1.7250441450
 C         -7.4529618948       -0.3589711885        0.8255434922
 C         -6.4029040198       -0.0732051787       -0.0322583573
 H         -6.4452873699        0.7260133341       -0.7534801858
 H         -8.3511945717        0.2360063297        0.7896154278
 H         -8.1631049750       -1.6308469294        2.3910608501
 H         -6.1113332867       -2.9973538482        2.4723157830
 H         -4.2261075529       -2.4756656902        0.9186067515
 H         -3.1950803897        0.5897658155        0.8097719028
 H         -2.3423863618        1.1663671823       -2.6605626959
 H         -0.0659724525        1.8480460525       -3.3529729377
 H          1.6894388369        2.2123008837       -1.6559931595
 H          1.0707800088        1.5979902126        1.9973249508
 C          1.8846793115        3.4128797433        1.2451499282
 C          1.4848222624        4.5277497348        0.3304312986
 C          0.8560630190        4.4132623673        1.6844178414
 H          1.1212622641        5.1312229024        2.4454635455
 H         -0.1698793614        4.0789854470        1.7277728961
 H          2.2078955488        5.3093769991        0.1544055627
 H          0.8810169916        4.2938503390       -0.5319903466
 H          2.8676353657        3.4975741423        1.6964907896
