  62
        -98.94012164
 C         -2.5603397025       -1.0799433437       -0.1128290994
 C         -2.4858698029        0.3312627214       -0.0336016701
 C         -3.7039407821        1.0095590520        0.4335310328
 C         -4.7772559966        0.2754074711        0.7797305148
 C         -6.0952134511        0.8382346213        1.2253206085
 C         -7.0424479891        1.0447256268        0.0351123029
 C         -6.4057318366        1.7902035763       -1.1377035844
 H         -5.6140877352        1.1711149286       -1.5658237225
 H         -7.1740341886        1.9060223115       -1.9051504996
 C         -5.8313366215        3.1674302865       -0.7774129293
 H         -6.2529528878        3.5092282802        0.1684827131
 H         -6.1325710318        3.8841188702       -1.5443192848
 C         -4.3042208909        3.2170203971       -0.6978620418
 H         -3.9995250604        4.2661748219       -0.6556156818
 H         -3.8757359476        2.7887481183       -1.6074924345
 C         -3.6743999330        2.5102396050        0.5094010406
 H         -2.6161025104        2.7865946109        0.5433690216
 H         -4.1482284613        2.8598266102        1.4290923738
 H         -7.3711897518        0.0651972096       -0.3195209701
 H         -7.9200224037        1.5921045566        0.3837509999
 H         -6.5508987428        0.1338546324        1.9232853008
 H         -5.9258326033        1.7834069578        1.7374166343
 O         -4.7989674117       -1.0806556907        0.7192157857
 C         -3.6992332150       -1.7903040364        0.2665230372
 O         -3.8537595153       -3.0283024140        0.2540721624
 O         -1.4587942943        0.9926990954       -0.3401210513
 C         -1.3618972924       -1.8769677080       -0.5969617477
 C         -0.1838729816       -1.6230655026        0.3128034113
 C         -0.3471804566       -1.8202865502        1.6817781368
 C          0.6965890888       -1.5930311902        2.5567142776
 C          1.9296881157       -1.1707737684        2.0894790271
 C          2.1042722187       -0.9705449399        0.7277382569
 C          1.0508344013       -1.2017609183       -0.1512161036
 H          1.2005750938       -1.0389145824       -1.2071941794
 N          3.3599356101       -0.5790689004        0.2213727875
 S          4.2199887847        0.6619712822        0.9765647416
 O          4.6337433583        0.2138225427        2.2821163488
 O          3.4718109921        1.8997773901        0.9379505729
 C          5.6352379909        0.7564870897       -0.1023403025
 C          6.6293368530       -0.1938678877        0.0337002954
 C          7.7227702213       -0.1453799929       -0.8159209852
 C          7.8037214052        0.8468793190       -1.7818688253
 C          6.7988144682        1.7943293021       -1.9054343439
 C          5.7013332626        1.7504578348       -1.0596224103
 H          4.9004249807        2.4705601159       -1.1147138770
 H          6.8655799774        2.5659468425       -2.6555274246
 H          8.6565089842        0.8837290811       -2.4412148872
 H          8.5072743655       -0.8788725988       -0.7222279140
 H          6.5280269929       -0.9402022963        0.8039569810
 H          3.3103028199       -0.3861867547       -0.7708910804
 H          2.7465295230       -0.9815871887        2.7659566911
 H          0.5527355710       -1.7457739751        3.6161561400
 H         -1.3104349729       -2.1481744250        2.0499543605
 H         -1.6420135203       -2.9356817437       -0.4974971116
 C         -1.0912376780       -1.5796692913       -2.0567603594
 C         -0.4038244117       -2.5953751332       -2.9177592238
 C         -1.8661846968       -2.3240624937       -3.1006300276
 H         -2.1871537474       -1.7906171225       -3.9828212186
 H         -2.5737217782       -3.0649972570       -2.7576329304
 H          0.2780506036       -2.2502694318       -3.6803961246
 H         -0.1157182616       -3.5275785435       -2.4560877822
 H         -0.8907512324       -0.5298112341       -2.2384940494
