  62
        -98.93942488
 C         -2.4426743645       -1.2282325076       -0.0084175488
 C         -3.1556718017       -0.4501281691        0.9311580733
 C         -3.7945199039        0.7749535081        0.4205019331
 C         -3.6519468971        1.0909243825       -0.8785839267
 C         -4.1578417960        2.3215952576       -1.5788928652
 C         -3.0728647600        3.4119691446       -1.6064529889
 C         -3.0421433746        4.3225022268       -0.3792317278
 H         -2.1528670000        4.9515654944       -0.4649581345
 H         -3.9135569332        4.9803744144       -0.3983133254
 C         -3.0038099257        3.6011311513        0.9707283874
 H         -2.3022051781        2.7656103154        0.9186663353
 H         -2.6135389083        4.3011395772        1.7123389484
 C         -4.3832940930        3.1055466128        1.4308649060
 H         -5.1503026594        3.5692050654        0.8109942210
 H         -4.5644432707        3.4433175136        2.4532377901
 C         -4.5696208676        1.5803288633        1.4275632819
 H         -4.2656368980        1.1749255219        2.3978226716
 H         -5.6340689947        1.3515357456        1.3124731339
 H         -2.1028666100        2.9197971799       -1.7235498003
 H         -3.2270063263        4.0383462032       -2.4874319437
 H         -4.3795679040        2.0266994516       -2.6065286881
 H         -5.0687106448        2.6849006170       -1.1124229666
 O         -2.9454544632        0.3189585746       -1.7493024751
 C         -2.3130032829       -0.8440435365       -1.3432442603
 O         -1.6891404766       -1.4327432902       -2.2453404126
 O         -3.2416608643       -0.7564575053        2.1524270970
 C         -1.7265848058       -2.4815619325        0.4647855534
 C         -0.2405168452       -2.2882423573        0.2860623827
 C          0.5792224065       -3.1676899484       -0.4069854066
 C          1.9259531453       -2.8884284722       -0.5688034114
 C          2.4832804952       -1.7382502519       -0.0416805744
 C          1.6736685574       -0.8566962558        0.6633176236
 C          0.3284085891       -1.1406851665        0.8266565748
 H         -0.3030094693       -0.4482730793        1.3712115790
 N          2.2330233281        0.3189136585        1.2066635352
 S          2.9226409976        1.3862998433        0.1015552529
 O          2.8634839996        2.6838811886        0.7398252380
 O          2.2978423730        1.2806930392       -1.1975411200
 C          4.6199520396        0.8572974326        0.0172371140
 C          5.1611828787        0.4642806872       -1.1908569431
 C          6.4855400666        0.0557372409       -1.2294447848
 C          7.2396998395        0.0477275760       -0.0659765487
 C          6.6811534221        0.4478651990        1.1390510425
 C          5.3586101564        0.8586948033        1.1844892804
 H          4.8862471126        1.1813167056        2.0972012181
 H          7.2709447838        0.4403091529        2.0414111919
 H          8.2691411343       -0.2723081990       -0.0988238920
 H          6.9211387116       -0.2553899589       -2.1653243337
 H          4.5330193502        0.4804714623       -2.0673786793
 H          1.5873217328        0.8222596031        1.7995725087
 H          3.5294233336       -1.5148169651       -0.1733327241
 H          2.5498204960       -3.5762891841       -1.1187308111
 H          0.1617677940       -4.0641728982       -0.8345485282
 H         -1.9366653133       -2.5488820848        1.5424900309
 C         -2.2745829883       -3.7153433236       -0.2179630875
 C         -2.1626946252       -5.0525489026        0.4496418816
 C         -3.4950266112       -4.3747629007        0.3484737493
 H         -4.2287511140       -4.7739269058       -0.3355088641
 H         -3.9216890305       -3.9446268283        1.2428921059
 H         -1.9834876814       -5.9219984419       -0.1643398047
 H         -1.6850031265       -5.0885568326        1.4169043182
 H         -2.1863123073       -3.6693469195       -1.2973314596
