  62
        -98.94504432
 C          0.8588621583        1.0885677125        0.7562092465
 C          1.1508064888        0.5082518148       -0.5032809351
 C          2.1064779171       -0.6088558494       -0.4751468795
 C          2.5080835561       -1.1193406896        0.7010006540
 C          3.4764038007       -2.2551318498        0.8904658487
 C          4.9482135058       -1.8189283491        0.8588868940
 C          5.4834187918       -1.4309712344       -0.5204340157
 H          6.5692716221       -1.3584629025       -0.4320778555
 H          5.2680463139       -2.2299652090       -1.2303678012
 C          4.9436015600       -0.0991466457       -1.0610495923
 H          5.7695982420        0.4919716452       -1.4628665126
 H          4.5094310025        0.4781789990       -0.2412874741
 C          3.9039525888       -0.2413935741       -2.1732085580
 H          4.3678143723       -0.6969531545       -3.0506841497
 H          3.5650293965        0.7589424623       -2.4546528884
 C          2.6737326071       -1.0718849943       -1.7823612189
 H          1.9046506396       -0.9325082073       -2.5450919195
 H          2.9397761101       -2.1264969598       -1.7326762573
 H          5.5443827085       -2.6539226704        1.2343315811
 H          5.0793627309       -0.9821244255        1.5492188766
 H          3.3070840973       -3.0177360733        0.1301983325
 H          3.2676429395       -2.6852593885        1.8725629878
 O          2.0463670234       -0.6528672615        1.8935003374
 C          1.2631411503        0.4889986375        1.9509801371
 O          0.9829884323        0.8568328156        3.1106836614
 O          0.6685369640        0.8981282224       -1.5954582169
 C          0.0440632926        2.3639979700        0.8767264563
 C         -1.1690166409        2.2957910022       -0.0156195707
 C         -1.3943689943        3.1528714285       -1.0845770088
 C         -2.5327847881        3.0166975072       -1.8587769476
 C         -3.4628740484        2.0304278237       -1.5873658278
 C         -3.2482497372        1.1714195563       -0.5148869432
 C         -2.1112449697        1.3133467923        0.2631165944
 H         -1.9535065290        0.6516462959        1.1032037406
 N         -4.1829158502        0.1751365974       -0.2027508040
 S         -3.7570689509       -1.1964587421        0.6309527898
 O         -4.8420130843       -2.1187538498        0.3658826642
 O         -3.5293345762       -0.8899094896        2.0217615802
 C         -2.2684621805       -1.8406914341       -0.1117893167
 C         -2.1760566684       -1.9138049304       -1.4868329056
 C         -1.0639274481       -2.5153092131       -2.0521934426
 C         -0.0760291818       -3.0450667069       -1.2382196279
 C         -0.1782707591       -2.9565761240        0.1407376386
 C         -1.2821953175       -2.3445942651        0.7109200836
 H         -1.3944127581       -2.2466774470        1.7799264544
 H          0.5933978838       -3.3610636976        0.7761312387
 H          0.7789819838       -3.5299984330       -1.6808293811
 H         -0.9736324693       -2.5737433555       -3.1248008266
 H         -2.9649617544       -1.5082294745       -2.0987920302
 H         -4.9074316079        0.0164010494       -0.8860368487
 H         -4.3478370585        1.9226604635       -2.1954003335
 H         -2.6943794647        3.6834435122       -2.6921005648
 H         -0.6669203349        3.9095018154       -1.3276090182
 H         -0.3119826774        2.3804299187        1.9204938514
 C          0.8674961572        3.6289001758        0.6753056013
 C          2.3098000795        3.6789833955        1.0807260239
 C          1.9367837536        3.7336745542       -0.3686008162
 H          2.0529052268        4.6719464501       -0.8909439061
 H          2.1247492420        2.8664124590       -0.9812847968
 H          2.6790179742        4.5758880395        1.5549943155
 H          2.7521008783        2.7707302481        1.4646271208
 H          0.2850426174        4.5242219666        0.8700348550
