  62
        -98.94121091
 C          1.5134824519        1.5788575441       -0.2195257461
 C          2.6839895501        1.2669278282        0.5142766428
 C          3.5091976187        0.1482717498        0.0209863499
 C          3.1114652350       -0.5080985140       -1.0844414781
 C          3.7633235188       -1.6982711068       -1.7352421423
 C          3.4922394358       -3.0158055837       -0.9844866464
 C          3.4977753556       -2.9075109913        0.5390876405
 H          2.7986144093       -2.1280422410        0.8483007399
 H          3.1295652073       -3.8544312703        0.9426477498
 C          4.8655230547       -2.6434753666        1.1648182992
 H          5.5240881167       -3.4887368176        0.9507499881
 H          4.7280326341       -2.5959737090        2.2480938949
 C          5.5705972670       -1.3647603960        0.7136335796
 H          5.9409459349       -1.4685127811       -0.3026242633
 H          6.4492903172       -1.2346725552        1.3525255302
 C          4.7439431775       -0.0896710182        0.8554369522
 H          4.4191168842        0.0094715736        1.8971786070
 H          5.4005964298        0.7703037375        0.6736747648
 H          2.5078151442       -3.3795388941       -1.2875496364
 H          4.2322184356       -3.7524824040       -1.3010256535
 H          3.3447650495       -1.7780704783       -2.7409972575
 H          4.8298519039       -1.5185370255       -1.8377313223
 O          1.9770301706       -0.1733061314       -1.7602284774
 C          1.1511488595        0.8619306942       -1.3586673321
 O          0.1593067223        1.0290974810       -2.0944447623
 O          3.0287502652        1.8954363828        1.5504481555
 C          0.6182119071        2.6896677956        0.3070953251
 C         -0.6264557746        2.0303566964        0.8462373717
 C         -0.6280017049        1.5198115156        2.1414958258
 C         -1.7144632033        0.8124163372        2.6219788663
 C         -2.8113853336        0.5748020508        1.8117307992
 C         -2.8112441736        1.0689940758        0.5143550003
 C         -1.7380476197        1.8141476715        0.0464978446
 H         -1.7508638324        2.1818759771       -0.9669585861
 N         -3.8907723953        0.7693534143       -0.3385824429
 S         -4.3324868058       -0.8460743076       -0.4044306394
 O         -4.8331959450       -1.0578841631       -1.7449103498
 O         -5.2689707071       -1.1243693941        0.6575498254
 C         -2.8362497607       -1.7844511099       -0.1327561796
 C         -1.7403457884       -1.5440816424       -0.9372641913
 C         -0.5775349343       -2.2638663752       -0.7155452839
 C         -0.5277521651       -3.2077528539        0.2978968542
 C         -1.6392739083       -3.4428101220        1.0922122540
 C         -2.8042935471       -2.7245433733        0.8777544619
 H         -3.6886030267       -2.8688777196        1.4770563773
 H         -1.5990117197       -4.1786292551        1.8790889279
 H          0.3836261970       -3.7591352365        0.4690232066
 H          0.2848211800       -2.0657658986       -1.3325371363
 H         -1.7802460049       -0.7966485980       -1.7141378020
 H         -3.7706809774        1.1376402530       -1.2717010125
 H         -3.6597853229        0.0068154792        2.1581336590
 H         -1.7036609896        0.4296533867        3.6309831071
 H          0.2439619523        1.6709460121        2.7620049189
 H          1.1666687072        3.1336104965        1.1480363547
 C          0.3510754568        3.7651599357       -0.7238406033
 C         -0.2422755228        5.0683092175       -0.2812967425
 C          1.1888982051        5.0071507150       -0.7207447227
 H          1.4576112693        5.4488521082       -1.6686990985
 H          1.9588913636        5.0896416322        0.0322150621
 H         -0.9585467441        5.5553633287       -0.9252320888
 H         -0.4446190633        5.1899693752        0.7720721501
 H          0.0546410642        3.3765647295       -1.6901710153
