  62
        -98.93725507
 C         -1.8347627421       -1.6443898424        0.0427844978
 C         -1.4923684911       -0.4316986060       -0.6039717909
 C         -2.5750107110        0.5680591743       -0.7352422005
 C         -3.7863749011        0.3016869123       -0.2200895103
 C         -5.0025640302        1.1867019541       -0.2021992609
 C         -5.0491689060        2.0284019566        1.0846449629
 C         -4.3129661939        3.3652236424        1.0097220079
 H         -4.8641894402        4.0411328933        0.3523966622
 H         -4.3273911989        3.7996546936        2.0120054191
 C         -2.8622449994        3.2872368953        0.5279667400
 H         -2.3587182656        2.4469161446        1.0093486595
 H         -2.3570186863        4.1988194061        0.8527875290
 C         -2.7407274135        3.1610324728       -0.9975817814
 H         -2.0616899263        3.9280199462       -1.3759044389
 H         -3.7103909501        3.3608010409       -1.4526813729
 C         -2.2015700024        1.8138808694       -1.4923892540
 H         -2.4904342563        1.6789948490       -2.5407427303
 H         -1.1074850715        1.8288659087       -1.4686389000
 H         -4.6346908835        1.4241900030        1.8957921406
 H         -6.0933618839        2.2316321161        1.3312363585
 H         -5.8678909066        0.5203885989       -0.2123771146
 H         -5.0384907993        1.8156935056       -1.0865300311
 O         -4.0583951107       -0.8600303183        0.4382852252
 C         -3.1071102813       -1.8487799013        0.5859150056
 O         -3.5054260124       -2.8505101380        1.2138885214
 O         -0.3514380378       -0.1729149971       -1.0659199553
 C         -0.8430211843       -2.7802035207        0.2398925799
 C          0.4493924986       -2.2451413971        0.8005791613
 C          0.5410823015       -1.9611760680        2.1590016999
 C          1.7018840718       -1.4314563474        2.6922903233
 C          2.7858993967       -1.1562391581        1.8778011831
 C          2.6933930687       -1.4131491529        0.5160668653
 C          1.5388493815       -1.9746034615       -0.0116689541
 H          1.4745912935       -2.1651728213       -1.0713698340
 N          3.7762471409       -1.1066203658       -0.3293310962
 S          4.4654754210        0.4151228569       -0.2187854607
 O          5.2166182173        0.5740243208       -1.4441019707
 O          5.2277616375        0.4993118910        1.0030290423
 C          3.1140422306        1.5762324163       -0.1716891486
 C          2.6479524292        2.0349764049        1.0433236985
 C          1.5743596667        2.9101315640        1.0595391143
 C          0.9947668524        3.3149774573       -0.1318849783
 C          1.4787249159        2.8495291401       -1.3443896809
 C          2.5435256054        1.9651141444       -1.3665427084
 H          2.9487590484        1.5829130408       -2.2896025436
 H          1.0271829989        3.1671967988       -2.2709192152
 H          0.1589845910        3.9963537456       -0.1139381470
 H          1.1927184696        3.2725353558        2.0007499632
 H          3.1339933646        1.7109777933        1.9485751012
 H          3.5919413238       -1.3256178965       -1.2980107819
 H          3.6981327399       -0.7406727187        2.2742187622
 H          1.7634807348       -1.2279197614        3.7507399183
 H         -0.3128136813       -2.1576877021        2.7930739412
 H         -1.3031297820       -3.4258400246        1.0046166564
 C         -0.6326958459       -3.6510718773       -0.9909267989
 C         -1.7984750375       -4.0444071749       -1.8470491417
 C         -0.7412055364       -3.1344508508       -2.3926520491
 H         -0.0614639608       -3.5291952504       -3.1341626471
 H         -0.9813132878       -2.0925306651       -2.5327724579
 H         -1.8507726408       -5.0577704271       -2.2155379957
 H         -2.7604081044       -3.6197116701       -1.5982832300
 H          0.1156613655       -4.4180416713       -0.8136516758
