  62
        -98.93991376
 C         -1.3376623671       -1.1383338276       -0.1941262117
 C         -2.4458241783       -1.0861870113        0.6873427882
 C         -3.1929631405        0.1810697253        0.7343439618
 C         -2.7866187579        1.2106088229       -0.0280642878
 C         -3.3590613481        2.6041545612       -0.1093991244
 C         -4.8867675358        2.7466045741       -0.1160208880
 C         -5.6398070232        1.6138920740       -0.8286256516
 H         -6.3341867697        2.0477925236       -1.5505657014
 H         -4.9386601424        0.9899890767       -1.3854436588
 C         -6.4483583263        0.7383295527        0.1315376729
 H         -7.2201534853        0.2133987087       -0.4366811767
 H         -6.9563444055        1.3837943449        0.8515270354
 C         -5.6451273882       -0.3193228405        0.8875854020
 H         -6.3115041035       -0.7926617598        1.6128107015
 H         -5.3188563027       -1.1009457935        0.1960919144
 C         -4.4004374763        0.1981298215        1.6271315277
 H         -4.5758832704        1.1838316041        2.0509607868
 H         -4.1820893329       -0.4969548008        2.4424251419
 H         -5.1122890095        3.6965231490       -0.6038589588
 H         -5.2514984747        2.8268072339        0.9069631488
 H         -2.9522045875        3.1878275555        0.7216400590
 H         -2.9524049862        3.0238232918       -1.0325589502
 O         -1.7092636268        1.1195696959       -0.8557461989
 C         -0.9565205554       -0.0379259929       -0.9615611100
 O         -0.0079875463        0.0502153430       -1.7636341714
 H          1.8239042678       -1.5500356428       -1.3446798068
 C          1.8872433576       -1.6612785830       -0.2741282425
 C          0.7942888835       -2.1336607952        0.4369160399
 C          0.8962335836       -2.2407823029        1.8208988721
 C          2.0615446588       -1.8838954959        2.4742284212
 C          3.1436362655       -1.3935111439        1.7633381978
 C          3.0446921626       -1.2708906008        0.3840701827
 N          4.1244996080       -0.7238892303       -0.3452104858
 S          4.5022286867        0.8703140911        0.0074759940
 O          5.3887523734        1.2993204859       -1.0505375240
 O          5.0353675786        0.9328436149        1.3454899798
 C          2.9661080722        1.7731415857       -0.0744474827
 C          2.1412622136        1.8033765653        1.0318651906
 C          0.9346981595        2.4782294946        0.9467320622
 C          0.5774884134        3.1110046779       -0.2331824330
 C          1.4141670829        3.0658460398       -1.3363406612
 C          2.6177753768        2.3857768356       -1.2605919276
 H          3.2968773887        2.3278029613       -2.0962823043
 H          1.1263258206        3.5482898877       -2.2565302151
 H         -0.3632771184        3.6345395546       -0.2963315604
 H          0.2742512858        2.5015607784        1.7997022008
 H          2.4538176925        1.3075685746        1.9365746265
 H          3.9961935085       -0.8090714785       -1.3445232835
 H          4.0495483149       -1.0802437683        2.2565621710
 H          2.1273441222       -1.9795247017        3.5475796788
 H          0.0414732725       -2.5926893336        2.3812402800
 C         -0.5233093042       -2.4217703510       -0.2367009975
 H         -1.0767689728       -3.1401788733        0.3821310842
 C         -0.3883102006       -2.9847646625       -1.6354613070
 C          0.1069097134       -4.3883564805       -1.8115364489
 C         -1.3289069045       -4.0599189015       -2.0868544214
 H         -1.6689827417       -4.0494003386       -3.1116388395
 H         -2.0748300625       -4.4006544386       -1.3838161068
 H          0.7545325976       -4.6071113142       -2.6467572395
 H          0.3366798630       -4.9502338125       -0.9188307869
 H         -0.0946157453       -2.2481388875       -2.3727637493
 O         -2.7919314613       -2.0559012976        1.4129878509
