  62
        -98.93876064
 C         -1.3838256056       -1.5656935048        0.4684762947
 C         -1.5357313140       -0.2564463344        0.9869680165
 C         -2.7450164504        0.4836287525        0.5868741134
 C         -3.6307412624       -0.1025571063       -0.2403490064
 C         -4.9710368433        0.3681966268       -0.7665912660
 C         -5.3968370850        1.8266134327       -0.6228241272
 C         -4.5918234194        2.8097751788       -1.4725802839
 H         -4.8557303438        2.6560494547       -2.5220206361
 H         -4.8907601160        3.8241564169       -1.2002143536
 C         -3.0743378905        2.6885194233       -1.3578251515
 H         -2.6286885655        3.4202922768       -2.0368072085
 H         -2.7581658332        1.7008170084       -1.6998510085
 C         -2.4999826779        2.9396339806        0.0345738539
 H         -2.8223406781        3.9192951932        0.3920339126
 H         -1.4111747900        2.9537946196       -0.0582884253
 C         -2.8547130373        1.8902244199        1.1009019338
 H         -2.1252544008        1.9755939999        1.9114949829
 H         -3.8393795138        2.0717628950        1.5247928591
 H         -5.3819405897        2.1202074365        0.4225587545
 H         -6.4382686979        1.8813666103       -0.9514681851
 H         -5.7181996747       -0.2614338920       -0.2706435029
 H         -4.9914166928        0.0906785245       -1.8253391596
 O         -3.4312982374       -1.3613040958       -0.7292069281
 C         -2.3053567847       -2.1094678457       -0.4240120937
 O         -2.2651072909       -3.2133855289       -0.9993653267
 O         -0.6992299902        0.2721923962        1.7665471893
 C         -0.1278683496       -2.3343372253        0.8462743938
 C          0.8353479967       -2.2418851277       -0.3116356001
 C          0.9833471058       -3.2438136355       -1.2625006356
 C          1.8485638401       -3.0682533222       -2.3282321517
 C          2.5924325919       -1.9089279948       -2.4549080327
 C          2.4497366269       -0.8996486169       -1.5088217874
 C          1.5670614178       -1.0690027238       -0.4545403496
 H          1.4432134594       -0.2785883287        0.2707404429
 N          3.1787363141        0.2950334531       -1.6077969357
 S          3.8406079758        0.9714335152       -0.2233484554
 O          4.9527637994        1.7613952424       -0.7110599839
 O          4.1660318320       -0.0417554234        0.7533696106
 C          2.5963036581        2.0773423669        0.4025210895
 C          2.1231842340        3.0665873768       -0.4372093548
 C          1.1903192450        3.9660603663        0.0508136371
 C          0.7497012854        3.8622344371        1.3624722790
 C          1.2342807685        2.8638225739        2.1914272570
 C          2.1694667699        1.9623645225        1.7093635647
 H          2.5661211911        1.1675506480        2.3210793717
 H          0.8832231255        2.7748092352        3.2065926454
 H          0.0201306108        4.5616686205        1.7397285638
 H          0.8066988963        4.7437014960       -0.5904806834
 H          2.4938596203        3.1168209775       -1.4476598423
 H          3.8280538312        0.3304047713       -2.3803673582
 H          3.2760717825       -1.7812227800       -3.2808393416
 H          1.9526077949       -3.8501025895       -3.0655787334
 H          0.4054880869       -4.1494368038       -1.1777855733
 H          0.3118354087       -1.7765127467        1.6848626111
 C         -0.4072310583       -3.7494866401        1.3019190317
 C          0.6713728915       -4.5061880776        2.0160797989
 C         -0.5357180255       -4.0332615015        2.7673550708
 H         -1.2629695375       -4.7641267224        3.0878253338
 H         -0.4191107852       -3.2049236546        3.4509280432
 H          0.7762913500       -5.5627680940        1.8228050825
 H          1.6079048441       -3.9953527063        2.1850299780
 H         -1.0569607445       -4.3003533578        0.6339754914
