  62
        -98.93884854
 C          1.8627992759        0.9091607783       -0.1140768499
 C          2.4506185603        0.1909982042        0.9504381080
 C          3.5441651251       -0.7391214050        0.6081173071
 C          3.8943509917       -0.8757011455       -0.6846888745
 C          4.9917880942       -1.7267403060       -1.2661470335
 C          6.3891282501       -1.1243255842       -1.0460874234
 C          6.6373750769       -0.5675642964        0.3534077271
 H          7.6117292164       -0.0720372019        0.3450364125
 H          5.8884631157        0.1952954245        0.5737250270
 C          6.6513530079       -1.6048330084        1.4736690040
 H          7.4309052514       -2.3422420274        1.2694706288
 H          6.9213428573       -1.0833716933        2.3955628149
 C          5.3346874505       -2.3454144943        1.7158811836
 H          5.4234993971       -2.8613605460        2.6765463454
 H          5.1746147676       -3.1162255539        0.9666842983
 C          4.1069469265       -1.4458564275        1.8181519577
 H          3.2774682198       -2.0359393631        2.2272763791
 H          4.2970101842       -0.6642146654        2.5625641100
 H          7.1337392372       -1.8888727177       -1.2740298182
 H          6.5182478382       -0.3049574491       -1.7573782449
 H          4.9357857977       -2.7342964574       -0.8644934124
 H          4.8046862272       -1.7872596245       -2.3406278747
 O          3.2769040195       -0.1827895787       -1.6840762759
 C          2.2548754217        0.7159959363       -1.4381947090
 O          1.7892139760        1.2611136389       -2.4561340836
 H         -0.2812039627       -0.5629355540        0.2294490807
 C         -0.9105757872        0.1044766194       -0.3464389376
 C         -0.5327541997        1.4347786992       -0.4872157009
 C         -1.3587690792        2.2821043619       -1.2132446195
 C         -2.5117857808        1.7978251268       -1.8082634000
 C         -2.8709722737        0.4687768235       -1.6863069379
 C         -2.0616328765       -0.3834695186       -0.9445722742
 N         -2.4218044664       -1.7331318933       -0.7987796681
 S         -4.0227489793       -2.0961887584       -0.4779510447
 O         -3.9887399854       -3.3554977388        0.2325108113
 O         -4.7785451016       -2.0882576832       -1.7056908033
 C         -4.5986093257       -0.7891278747        0.5916149624
 C         -5.6591630989        0.0027783846        0.2015121909
 C         -6.0736652885        1.0275829791        1.0372043013
 C         -5.4206098250        1.2439652234        2.2404184508
 C         -4.3579075770        0.4379093899        2.6196684133
 C         -3.9409790045       -0.5895466310        1.7894041854
 H         -3.1202604508       -1.2351579678        2.0591021251
 H         -3.8498255707        0.6072024326        3.5555637780
 H         -5.7406255690        2.0443584200        2.8886330427
 H         -6.9005876925        1.6546810446        0.7456676202
 H         -6.1356863212       -0.1986509719       -0.7440296777
 H         -1.7967478052       -2.2659368091       -0.2128972320
 H         -3.7544319721        0.0740774326       -2.1611879221
 H         -3.1376468541        2.4654237671       -2.3802430279
 H         -1.0953761011        3.3207978852       -1.3238375349
 C          0.7406960486        1.8859002792        0.1855331026
 H          0.5883354275        1.8278080623        1.2737971092
 C          1.1536672482        3.2973318730       -0.1737710165
 C          0.5765615404        4.4653820137        0.5670435954
 C          2.0040261050        4.0683635707        0.7895473294
 H          2.7858861340        4.7003424795        0.3958205394
 H          2.2629807240        3.5840257371        1.7199136237
 H          0.3791663024        5.3755244563        0.0211386148
 H         -0.1342485331        4.2575264800        1.3522089715
 H          1.3666269865        3.4118730380       -1.2305954838
 O          2.0780810266        0.3152039760        2.1498714939
