  62
        -98.93684428
 C         -2.2051233533       -1.1685170461       -0.0425276653
 C         -3.2629716523       -0.8621225562        0.8469955345
 C         -4.1815340357        0.2191069971        0.4468785987
 C         -3.9726204883        0.8504896127       -0.7223009037
 C         -4.7517113788        1.9855755296       -1.3376212366
 C         -6.2838805972        1.8917868545       -1.2702777293
 C         -6.9133623262        2.8969862173       -0.3040960229
 H         -6.3755385197        3.8435761297       -0.3891408912
 H         -7.9448695219        3.0796686630       -0.6133402556
 C         -6.9404831613        2.4615069515        1.1598716076
 H         -7.2815106625        3.3141695401        1.7516792482
 H         -7.6755701960        1.6637293826        1.2858688520
 C         -5.6025669899        1.9779101410        1.7227407325
 H         -4.7878597407        2.6077843186        1.3667695099
 H         -5.6380664298        2.0873873669        2.8087191936
 C         -5.3007530932        0.5043088004        1.4110152967
 H         -6.2069665308        0.0044506073        1.0573957542
 H         -5.0107111875       -0.0134676472        2.3304019486
 H         -6.6725194872        2.0970967989       -2.2690596895
 H         -6.5823540881        0.8773743255       -1.0107465250
 H         -4.4164094942        2.9203552910       -0.8808820126
 H         -4.4271442410        2.0175110160       -2.3803207563
 O         -2.9323610850        0.5298760242       -1.5438263812
 C         -2.0242250288       -0.4679748457       -1.2339194535
 O         -1.1367936924       -0.6283121524       -2.0948624265
 O         -3.4347890084       -1.4689588098        1.9380236156
 C         -1.2273194563       -2.2614637243        0.3587688357
 C          0.0909620365       -1.6056302555        0.6865928401
 C          0.2803349412       -1.0511671355        1.9496165858
 C          1.4471483375       -0.3771486348        2.2565570816
 C          2.4442527342       -0.2296398647        1.3075969295
 C          2.2563956018       -0.7623582724        0.0400088767
 C          1.0951016210       -1.4630095465       -0.2580853260
 H          0.9578786310       -1.8603730604       -1.2512687797
 N          3.2547352799       -0.5990177216       -0.9373709062
 S          3.8652375635        0.9485205855       -1.1731308269
 O          2.9038385775        1.9674192135       -0.8191069759
 O          4.3495516954        0.9633786823       -2.5365119101
 C          5.2629592921        1.0167011976       -0.0694921463
 C          6.2243664486        0.0305362092       -0.1749100637
 C          7.3217075982        0.0724574855        0.6701455486
 C          7.4408426237        1.0957644804        1.5988303993
 C          6.4694377691        2.0807236985        1.6895658191
 C          5.3685326026        2.0438655225        0.8477045656
 H          4.5853592308        2.7845077354        0.8858950158
 H          6.5635744431        2.8760576740        2.4114436628
 H          8.2957121624        1.1260658467        2.2557726801
 H          8.0791502415       -0.6917133660        0.6024015984
 H          6.0954788011       -0.7444171092       -0.9117823647
 H          3.0091039878       -1.0145210296       -1.8251102855
 H          3.3510771627        0.3066219039        1.5346786222
 H          1.5817898433        0.0429851002        3.2416883598
 H         -0.5089446832       -1.1433726794        2.6825485171
 H         -1.6353706777       -2.6898874133        1.2837953482
 C         -1.1284475910       -3.3556696644       -0.6828776072
 C         -0.4819810322       -4.6573536212       -0.3170240687
 C         -1.9636736493       -4.5898919149       -0.5290960336
 H         -2.3803571406       -5.0421933307       -1.4165938905
 H         -2.6078584535       -4.6521627235        0.3355695239
 H          0.1213242146       -5.1597581970       -1.0575159465
 H         -0.1188061731       -4.7640214914        0.6937977842
 H         -0.9841758708       -2.9817407994       -1.6891791067
