  62
        -98.94270221
 C          1.3534520214       -0.7093752699       -0.4583771783
 C          2.0178420360       -0.5490969720        0.7815227104
 C          2.9382397794        0.5932611960        0.8641952294
 C          3.0691543839        1.4271159817       -0.1836380605
 C          3.9393155594        2.6536680258       -0.2372502167
 C          5.4028562655        2.3668732967       -0.5991949889
 C          6.2249972190        1.6952875294        0.5013689907
 H          7.2724963766        1.7525389940        0.1988151446
 H          6.1229025538        2.2625275727        1.4271518129
 C          5.8636660180        0.2247459850        0.7534565354
 H          5.2958925458       -0.1616709225       -0.0959928404
 H          6.7784681076       -0.3680491904        0.8228867201
 C          5.0662703567       -0.0220990975        2.0342449009
 H          5.6765500942        0.2378017956        2.9021023578
 H          4.8341013515       -1.0884839170        2.0934960858
 C          3.7458446764        0.7549570596        2.1163548766
 H          3.1589555027        0.3485466069        2.9440693206
 H          3.9416437706        1.8093309603        2.3118704998
 H          5.4256911216        1.7488438753       -1.4996548392
 H          5.8718498795        3.3235096905       -0.8408185693
 H          3.5155708097        3.3016758476       -1.0076325051
 H          3.8958493390        3.1767647404        0.7186528719
 O          2.3815682026        1.2589955387       -1.3446725115
 C          1.5234394765        0.1826057591       -1.5172454306
 O          0.9705356193        0.1389697082       -2.6333395690
 H         -0.7317843331        0.3569077510        0.3618815685
 C         -1.2352451261       -0.5365329563        0.7118687972
 C         -0.7695637160       -1.7802332887        0.3074116664
 C         -1.4411535687       -2.9100299895        0.7604692936
 C         -2.5407211358       -2.7933629932        1.5936793763
 C         -2.9981932470       -1.5505915065        1.9945502378
 C         -2.3304377547       -0.4182161181        1.5532217742
 N         -2.8216637429        0.8612420773        1.9225266487
 S         -4.1206252724        1.3483555574        0.9771632475
 O         -4.3482717964        2.7402035025        1.2921876602
 O         -5.2180267022        0.4472233700        1.2148744334
 C         -3.5235228758        1.1745323414       -0.6938513635
 C         -3.6217996320       -0.0546843602       -1.3144127738
 C         -3.0319907692       -0.2247922323       -2.5566187672
 C         -2.3534316464        0.8273565703       -3.1514001357
 C         -2.2693535698        2.0572982022       -2.5174349601
 C         -2.8514066672        2.2326523195       -1.2726193343
 H         -2.8017896448        3.1711516850       -0.7427334733
 H         -1.7365649044        2.8708640029       -2.9833393177
 H         -1.8736512103        0.6865606022       -4.1066682590
 H         -3.0915001872       -1.1808921443       -3.0512835780
 H         -4.1532277362       -0.8503292415       -0.8177489846
 H         -2.1100629120        1.5780850942        1.8759977410
 H         -3.8635901565       -1.4374373054        2.6266104138
 H         -3.0497857920       -3.6822046306        1.9336926707
 H         -1.1030174865       -3.8871200555        0.4558007550
 C          0.3874976255       -1.8594208720       -0.6599702574
 H         -0.0222957955       -1.7346482159       -1.6739515383
 C          1.1237507314       -3.1832872123       -0.5906779551
 C          0.7132470893       -4.3315310954       -1.4616077935
 C          1.9836523217       -3.5908493036       -1.7481456955
 H          2.9258590068       -4.0777435170       -1.5458881868
 H          2.0092850492       -2.9289091705       -2.6018890163
 H         -0.1185847537       -4.1810389426       -2.1329995531
 H          0.7854994294       -5.3323795838       -1.0629943642
 H          1.4909553000       -3.4008653890        0.4056430355
 O          1.8462981691       -1.3082380810        1.7702914982
