  62
        -98.94479997
 C          1.1425314701        1.3275597504        0.1967729503
 C          1.3889484004        0.0024931006        0.6345215806
 C          2.4205844404       -0.7389178295       -0.1021393194
 C          3.0258480200       -0.1540580196       -1.1518841797
 C          4.1254778399       -0.7748182796       -1.9630999698
 C          5.5059760100       -0.4193245993       -1.3934154203
 C          5.6321143704       -0.6560217989        0.1115256598
 H          6.6558079704       -0.4029872386        0.3960666795
 H          4.9721240504        0.0375698212        0.6375264898
 C          5.3166504107       -2.0908280988        0.5565373002
 H          5.3640086706       -2.7632086690       -0.3006595796
 H          6.0827016310       -2.4140258485        1.2645582101
 C          3.9656008709       -2.2536659789        1.2554567806
 H          3.9398212712       -3.2442696487        1.7169399508
 H          3.8783652210       -1.5167621887        2.0577279704
 C          2.7288808907       -2.1363823193        0.3556102108
 H          2.8318593506       -2.8060064295       -0.5003201990
 H          1.8603873909       -2.4519719993        0.9397656511
 H          5.7011229198        0.6371891607       -1.5914745906
 H          6.2590150000       -1.0078713693       -1.9207454903
 H          3.9945699901       -1.8549518397       -1.9771141095
 H          4.0553893196       -0.3950180699       -2.9837205099
 O          2.7295128597        1.1015774502       -1.5719274200
 C          1.7817285197        1.8745851802       -0.9162015100
 O          1.6133217894        3.0018019001       -1.4177005702
 H         -1.5399709197        0.1404786800        0.2842186813
 C         -1.8436137100        1.0482372498       -0.2172800189
 C         -1.1282637001        2.2188892000        0.0078566406
 C         -1.5213921205        3.3789103198       -0.6457512496
 C         -2.6034722907        3.3581826194       -1.5088207793
 C         -3.3207798605        2.1951229592       -1.7204355588
 C         -2.9372040402        1.0290219994       -1.0664285986
 N         -3.6294283700       -0.1753108608       -1.2649119082
 S         -3.9099973795       -1.1832319205        0.0425665722
 O         -5.0349087095       -1.9979478308       -0.3700477674
 O         -4.0955664794       -0.4300420402        1.2613454620
 C         -2.4746986293       -2.2273824802        0.1569622121
 C         -1.9698372290       -2.5430427098        1.4018365820
 C         -0.9004317888       -3.4189734696        1.4895516020
 C         -0.3576530390       -3.9607151798        0.3354327420
 C         -0.8710180894       -3.6268357502       -0.9086465079
 C         -1.9434834295       -2.7554097804       -1.0027989579
 H         -2.3704514598       -2.4755331707       -1.9517029679
 H         -0.4387765795       -4.0437152504       -1.8042147779
 H          0.4732271811       -4.6452576897        0.4057142820
 H         -0.4918353786       -3.6665140893        2.4561177820
 H         -2.4125245589       -2.0890384697        2.2741174320
 H         -4.4404730102       -0.1069547610       -1.8626323680
 H         -4.1689108907        2.1846602089       -2.3883544786
 H         -2.8965159209        4.2634472992       -2.0189014294
 H         -0.9715690306        4.2925742899       -0.4927950799
 C          0.0727629201        2.1328271604        0.9166324904
 H         -0.2126327596        1.5250208806        1.7872045706
 C          0.5815582100        3.4713483606        1.4035860399
 C         -0.1936775499        4.2118780908        2.4508893599
 C          1.1221588203        3.5839131411        2.7962931898
 H          1.9717461103        4.2275768012        2.9685558494
 H          1.1179603206        2.6934501712        3.4079999300
 H         -0.2492312601        5.2879361607        2.3889473497
 H         -1.0928080297        3.7458379907        2.8257438803
 H          1.0756909397        4.0483479905        0.6315837697
 O          0.7754460807       -0.5334652393        1.5959933809
