  62
        -98.93379770
 C         -2.3248098952       -0.7671943849       -0.1590727921
 C         -3.5641881130       -1.0386207053        0.4665720771
 C         -4.7555784666       -0.4340758937       -0.1510454801
 C         -4.6135264377        0.3217706129       -1.2534305095
 C         -5.6866826313        0.9975733778       -2.0699369305
 C         -6.8029552696        1.7265299173       -1.3085076464
 C         -6.3771361367        2.3545931993        0.0265336793
 H         -5.2889836929        2.3532712031        0.1110036912
 H         -6.7039685533        3.3958818267        0.0485838286
 C         -6.9851805837        1.6467664968        1.2399044310
 H         -6.9597363272        2.3286559762        2.0933026225
 H         -8.0339582005        1.4278725366        1.0279312459
 C         -6.2832774171        0.3590455976        1.6694873005
 H         -6.8799108314       -0.1018984593        2.4603378689
 H         -5.3074138752        0.5955073027        2.1022316214
 C         -6.0585462778       -0.6764261595        0.5553974567
 H         -5.9693982195       -1.6601657790        1.0240640281
 H         -6.8949991619       -0.6965920774       -0.1387848967
 H         -7.6294881597        1.0403846212       -1.1291041718
 H         -7.1802131724        2.5056298488       -1.9729969299
 H         -6.1337771021        0.2480263459       -2.7292918255
 H         -5.1525922944        1.7075866053       -2.7057645482
 O         -3.3976536564        0.5568463862       -1.8240387497
 C         -2.2279768790        0.0348303821       -1.2947247500
 O         -1.1978023221        0.3527075292       -1.9187774796
 O         -3.6726718474       -1.7586450166        1.4952798200
 C         -1.0580407945       -1.3544098419        0.4364456049
 C         -0.1272451290       -0.2419200577        0.8508078583
 C         -0.5908619242        0.7115305797        1.7550815064
 C          0.2188565781        1.7535736512        2.1608853185
 C          1.5125904106        1.8630853808        1.6811734947
 C          1.9834439960        0.9206506607        0.7753836794
 C          1.1660293756       -0.1260574287        0.3692863936
 H          1.5587176166       -0.8415352733       -0.3330851964
 N          3.2797281412        1.0263666077        0.2470736031
 S          4.1407355824       -0.3824068963       -0.0988675778
 O          3.7356926658       -0.8847352496       -1.3872911490
 O          4.0424289106       -1.3077007096        1.0078803122
 C          5.7932021769        0.2799468827       -0.2070258759
 C          6.1682297623        0.9286578130       -1.3686398123
 C          7.4394897519        1.4739560454       -1.4507590745
 C          8.3098654036        1.3622913423       -0.3763828252
 C          7.9202080052        0.7067072884        0.7817779488
 C          6.6494045423        0.1602535087        0.8711979373
 H          6.3052855153       -0.3645748152        1.7478202035
 H          8.6003713082        0.6187997947        1.6136062071
 H          9.2990843664        1.7867601879       -0.4437233053
 H          7.7465003505        1.9822635039       -2.3505479041
 H          5.4606201408        0.9827671005       -2.1797072870
 H          3.8505686029        1.7022070213        0.7360577289
 H          2.1476696440        2.6763959378        1.9979198825
 H         -0.1556154642        2.4840420543        2.8623480072
 H         -1.6003447869        0.6209871780        2.1333439902
 H         -1.3805916431       -1.8848834468        1.3450638204
 C         -0.4292140959       -2.3535677233       -0.5101794587
 C          0.4875707684       -3.4126487355        0.0222585620
 C         -0.8769752392       -3.7826527375       -0.4743625852
 H         -0.9587748105       -4.3203459925       -1.4069841587
 H         -1.6303700585       -4.0487727980        0.2525799116
 H          1.3500229412       -3.6890039488       -0.5661492078
 H          0.6661215923       -3.4279301700        1.0870746685
 H         -0.2003732546       -1.9260102826       -1.4805984912
