  62
        -98.94828124
 C          1.3149104304        1.5610552016        0.2179746890
 C          1.6402716084        0.5929098735        1.1986520554
 C          2.9125422349       -0.1103111922        1.0103079452
 C          3.6942645380        0.1964909522       -0.0412431618
 C          5.0508604572       -0.3846792037       -0.3359570534
 C          5.0157260323       -1.7135682462       -1.1019664187
 C          4.5416957383       -2.9169833184       -0.2867434053
 H          4.7662949708       -3.8113841937       -0.8711848296
 H          5.1163509995       -2.9789199443        0.6380605512
 C          3.0416557294       -2.9042858849        0.0373019283
 H          2.6091812167       -3.8870340348       -0.1647288191
 H          2.5242960796       -2.2018989403       -0.6209183695
 C          2.6994147888       -2.5566510210        1.4858505272
 H          1.6089489473       -2.5294864177        1.5641207507
 H          3.0670128962       -3.3432562943        2.1493324852
 C          3.2575421483       -1.2103716376        1.9673405242
 H          2.7982079094       -0.9732935844        2.9302745801
 H          4.3372705663       -1.2786803087        2.1012349375
 H          6.0302580624       -1.9148250950       -1.4538620674
 H          4.3754588998       -1.5954511229       -1.9793246798
 H          5.5754964826        0.3511654717       -0.9493602922
 H          5.6006949582       -0.5165094555        0.5964270940
 O          3.3399993762        1.1231748297       -0.9705616405
 C          2.1247058162        1.7906149654       -0.8935873279
 O          1.8995037422        2.5526676761       -1.8530887191
 H         -0.4236118945       -0.2154230320       -0.4004463815
 C         -1.0596665997        0.4593500860       -0.9519634710
 C         -0.9588194954        1.8273656912       -0.7379641738
 C         -1.7658457000        2.6745568386       -1.4862716592
 C         -2.6393417138        2.1551673378       -2.4268871046
 C         -2.7552758428        0.7899157495       -2.6163942682
 C         -1.9573027352       -0.0662694825       -1.8660329655
 N         -2.0493997315       -1.4610154575       -1.9942446613
 S         -1.9373204201       -2.3912019973       -0.6032419595
 O         -0.5623762681       -2.5280700755       -0.1988198399
 O         -2.6160895223       -3.6241026261       -0.9461613857
 C         -2.8901161815       -1.4977015379        0.6127594234
 C         -4.2585252559       -1.4532559995        0.4230725197
 C         -5.0386334825       -0.7272235106        1.3067886636
 C         -4.4387679815       -0.0547471419        2.3610742949
 C         -3.0663726696       -0.1146291060        2.5413422946
 C         -2.2788597266       -0.8420108678        1.6614053752
 H         -1.2074310500       -0.8897913824        1.7829928069
 H         -2.5923488666        0.4049952620        3.3590160962
 H         -5.0431464938        0.5174089472        3.0471820486
 H         -6.1071516934       -0.6842354054        1.1705290609
 H         -4.6873659787       -1.9984377391       -0.4021612553
 H         -2.7885700240       -1.7842735282       -2.6009494458
 H         -3.4481952016        0.3885011092       -3.3397411776
 H         -3.2511571974        2.8247053543       -3.0119918097
 H         -1.7060970028        3.7402930217       -1.3394534975
 C         -0.0061057720        2.2986729530        0.3340417081
 H         -0.4260026983        1.9826089278        1.3017935900
 C          0.1954905098        3.7979996209        0.3608031739
 C         -0.7733614624        4.6719982789        1.0983681241
 C          0.6021766172        4.4483831190        1.6483166267
 H          1.3135105133        5.2597359781        1.6131798691
 H          0.7119792576        3.8108027399        2.5135296704
 H         -1.6014020691        4.1907261266        1.5962498014
 H         -1.0071110654        5.6428323951        0.6883151729
 H          0.6395663173        4.1771152194       -0.5521477635
 O          0.9030044987        0.3360859439        2.1890257247
