  62
        -98.93471137
 C         -1.9264953305       -0.8786609154        0.1003428908
 C         -2.6329416926        0.0903010718        0.8558135111
 C         -4.0189892846        0.3851892414        0.4512409869
 C         -4.5420824911       -0.2743720098       -0.5976920085
 C         -5.9186298316       -0.1544032488       -1.2006290176
 C         -7.0966573821       -0.1034760888       -0.2155083896
 C         -7.7709749123        1.2675256436       -0.1454082821
 H         -7.8228265493        1.6815952895       -1.1545483490
 H         -8.7970028122        1.1351716743        0.2051893266
 C         -7.0938159200        2.2765966542        0.7804434156
 H         -7.2629848226        1.9837297900        1.8190098055
 H         -7.5839136309        3.2417542276        0.6318133296
 C         -5.5886370176        2.4540432420        0.5689188903
 H         -5.3108921017        3.4348960160        0.9610988600
 H         -5.3492050245        2.4586994386       -0.4938602595
 C         -4.7357038491        1.4034716780        1.2956514945
 H         -3.9410870723        1.9027649731        1.8588646152
 H         -5.3443828002        0.8788513207        2.0381927442
 H         -7.8413187774       -0.8282214898       -0.5486137053
 H         -6.7656087108       -0.4134883415        0.7745500825
 H         -5.9384812416        0.7251570223       -1.8488219864
 H         -6.0181749590       -1.0241492091       -1.8539871347
 O         -3.8217702840       -1.1853832182       -1.3082119642
 C         -2.5118665426       -1.5098978642       -0.9966507306
 O         -2.0161813729       -2.3583184549       -1.7624301260
 O         -2.1227730173        0.6876122889        1.8431672169
 C         -0.5045581878       -1.1834261333        0.5389213653
 C          0.5013692362       -0.4378823362       -0.3050773215
 C          0.7178597070       -0.7601238224       -1.6405048807
 C          1.6643824748       -0.0754813670       -2.3812718438
 C          2.4199860588        0.9318403441       -1.8071230933
 C          2.2114918664        1.2600625624       -0.4745938917
 C          1.2567872491        0.5762974328        0.2661310424
 H          1.0877943235        0.8454142614        1.3002338895
 N          3.0054180770        2.2600015734        0.1211822823
 S          4.6638334988        2.0233596191        0.0168937551
 O          5.2260631681        2.7304413516        1.1455428487
 O          5.1265694437        2.4369690483       -1.2834372880
 C          4.8637260193        0.2606874834        0.2065907208
 C          5.1817238177       -0.5187244905       -0.8865679039
 C          5.2451677372       -1.8943946408       -0.7320447535
 C          4.9871745325       -2.4633963719        0.5049080246
 C          4.6757960526       -1.6661688085        1.5957696071
 C          4.6085119343       -0.2908204845        1.4467339937
 H          4.3745211722        0.3605174098        2.2738105996
 H          4.4807060599       -2.1125968047        2.5578149668
 H          5.0303780021       -3.5346573239        0.6219415038
 H          5.4893051028       -2.5170192467       -1.5774963768
 H          5.3753646476       -0.0369982821       -1.8307089354
 H          2.7383265536        2.4703140259        1.0722993368
 H          3.1672532777        1.4694152407       -2.3682986040
 H          1.8183644855       -0.3314410760       -3.4184908878
 H          0.1251309710       -1.5388157238       -2.0944589141
 H         -0.4350424269       -0.7881615085        1.5612473666
 C         -0.1788033333       -2.6640241125        0.5758979708
 C          1.0275807948       -3.1123475295        1.3436003883
 C         -0.3459827616       -3.4204013396        1.8578287492
 H         -0.7003777957       -4.4391384535        1.8109319219
 H         -0.7047323602       -2.8744140010        2.7183722963
 H          1.6203185321       -3.9196295160        0.9431270399
 H          1.6039169087       -2.3537591964        1.8514972164
 H         -0.4151824104       -3.1825337602       -0.3433042815
