  62
        -98.94449331
 C          2.6442990071        1.2861781069        0.1133767436
 C          2.5767423491        0.2952217245       -0.8959143235
 C          3.5233067463       -0.8227627560       -0.7619253866
 C          4.3847516086       -0.8437601547        0.2708178071
 C          5.3615764579       -1.9469015982        0.5546422612
 C          4.7500270846       -3.0057682378        1.4826534386
 C          3.3664950098       -3.4876479590        1.0453218512
 H          2.6544792232       -2.6627856391        1.1291826451
 H          3.0497078480       -4.2552702885        1.7547468984
 C          3.3127331153       -4.0570299762       -0.3791930206
 H          2.7293153234       -4.9800340268       -0.3651913375
 H          4.3184488808       -4.3134157843       -0.7145260431
 C          2.6563085800       -3.1338548143       -1.4077014053
 H          1.6835125011       -2.8005483212       -1.0342989881
 H          2.4728544242       -3.7139391581       -2.3164537104
 C          3.4718362848       -1.8983413600       -1.8101981642
 H          2.9832432583       -1.4480328998       -2.6793339694
 H          4.4793034571       -2.2022217414       -2.1016958347
 H          4.6617659662       -2.5793135472        2.4844127724
 H          5.4328179524       -3.8557228304        1.5334657373
 H          5.6677811265       -2.4044340959       -0.3839754635
 H          6.2371518599       -1.5133781465        1.0406474542
 O          4.4300143647        0.1318552071        1.2127860583
 C          3.5551466626        1.2026283141        1.1705969997
 O          3.6885127712        2.0093197401        2.1119837187
 H         -0.3021539933        1.5936678793       -1.5144126100
 C         -0.5730412492        1.5397763382       -0.4719585095
 C          0.3223431955        1.9714407042        0.4942983149
 C         -0.0350336506        1.8532586460        1.8344373858
 C         -1.2590453295        1.3203029433        2.1934850712
 C         -2.1470621582        0.8828390719        1.2257960287
 C         -1.7917421449        0.9800320929       -0.1123091179
 N         -2.6777709162        0.5181155130       -1.1022013882
 S         -3.3162623164       -1.0240612593       -0.9113165940
 O         -2.4412149303       -1.8765921331       -0.1397888195
 O         -3.6388373843       -1.4723025172       -2.2486401351
 C         -4.8330983567       -0.7373033167       -0.0217034634
 C         -5.7259696266        0.1814005493       -0.5381076635
 C         -6.9146005019        0.4114432237        0.1358156834
 C         -7.1909055812       -0.2795758331        1.3062958814
 C         -6.2861811591       -1.2015051867        1.8098070343
 C         -5.0945102874       -1.4352768509        1.1409258342
 H         -4.3583096654       -2.1377384625        1.4984469730
 H         -6.5023943920       -1.7381004522        2.7196769863
 H         -8.1165735947       -0.0985312709        1.8294122593
 H         -7.6205406304        1.1277409769       -0.2526070060
 H         -5.4744682101        0.6943959989       -1.4512117488
 H         -2.3173695017        0.6330675914       -2.0392277287
 H         -3.0973015649        0.4534984257        1.4986538251
 H         -1.5238222974        1.2390556111        3.2368294333
 H          0.6693385923        2.1689689864        2.5915789206
 C          1.6978374351        2.4780960131        0.1340349402
 H          2.0466656623        3.1217305715        0.9521319878
 C          1.7388545009        3.2704922045       -1.1559750428
 C          1.1431480004        4.6449770279       -1.1857338054
 C          2.6301783774        4.4709053371       -1.2473019673
 H          3.1356630669        4.6660360413       -2.1812560026
 H          3.2124713276        4.7286688428       -0.3746361201
 H          0.7148812908        5.0210033559       -0.2689893460
 H          0.6253451370        4.9638004206       -2.0773251750
 H          1.6472673868        2.6586593699       -2.0440843338
 O          1.7801184263        0.3297672250       -1.8716400810
