  62
        -98.93966846
 C         -1.4473083620       -0.9114387791       -0.5245121470
 C         -2.6220901952       -1.0548355229        0.2559363944
 C         -3.4122952423        0.1585639232        0.5202823523
 C         -2.9885956381        1.3369584585        0.0271566363
 C         -3.5417600740        2.7392267525        0.1752126140
 C         -4.9503947145        2.9699273964        0.7159570675
 C         -6.0735561827        2.4866689869       -0.2011488018
 H         -6.0997173282        3.1289154645       -1.0850071350
 H         -7.0216782020        2.6084620669        0.3270205426
 C         -5.9547627019        1.0433285397       -0.6838868316
 H         -5.0557050706        0.9336745950       -1.2936259586
 H         -6.8109531811        0.8361941952       -1.3315135383
 C         -5.9388264273       -0.0151809278        0.4170870315
 H         -6.0134869667       -0.9931535277       -0.0658149450
 H         -6.8133319293        0.1082441366        1.0588245111
 C         -4.6802300405       -0.0329236965        1.3020798932
 H         -4.6066639198       -1.0210298591        1.7657878598
 H         -4.7493540022        0.6979942592        2.1046067100
 H         -5.0639063136        4.0508402278        0.8361128601
 H         -5.0492899864        2.5323241123        1.7050386910
 H         -3.4584180649        3.1992440776       -0.8147484025
 H         -2.8297842962        3.2671608687        0.8201451279
 O         -1.8519242662        1.4297782293       -0.7183211383
 C         -1.0530954022        0.3348643269       -1.0067550754
 O         -0.0614474110        0.6230978348       -1.7045325945
 O         -3.0001616010       -2.1653861744        0.7190285930
 C         -0.6299557874       -2.1727841798       -0.7502184170
 C          0.4028507998       -2.3097404819        0.3444590647
 C          0.3837564737       -3.4015653588        1.2034138074
 C          1.3043243111       -3.5016600492        2.2314348489
 C          2.2436896079       -2.5075306040        2.4294990780
 C          2.2724155243       -1.4090953538        1.5745202672
 C          1.3703206497       -1.3298173399        0.5243316079
 H          1.3896049858       -0.4750519691       -0.1306042415
 N          3.2237053520       -0.3998806037        1.7633615627
 S          2.9465114180        1.2147410646        1.4056093224
 O          3.7277246839        1.9294450293        2.3964865880
 O          1.5378647541        1.5248119454        1.3661245478
 C          3.7373699652        1.4224614337       -0.1761943350
 C          5.1200466828        1.4438298688       -0.1830289521
 C          5.7859025894        1.5861551439       -1.3882973031
 C          5.0611674339        1.7036582972       -2.5653595688
 C          3.6760941857        1.6823428514       -2.5411127231
 C          3.0016193842        1.5411782716       -1.3365823316
 H          1.9231556487        1.5144530956       -1.2998110905
 H          3.1061298394        1.7716900088       -3.4523325856
 H          5.5773015825        1.8139790122       -3.5061130806
 H          6.8636344465        1.6050429238       -1.4081658101
 H          5.6421051703        1.3631239604        0.7558650752
 H          3.7872722991       -0.5010921603        2.5943546324
 H          2.9492009298       -2.5725227670        3.2439684051
 H          1.2801447603       -4.3532803284        2.8943426677
 H         -0.3727091608       -4.1616481918        1.0754355129
 H         -1.3423211557       -3.0018762096       -0.6374110626
 C          0.0105669815       -2.2760897769       -2.1188436215
 C          0.3746470351       -3.6307976570       -2.6458135481
 C         -0.7682812006       -2.8731649392       -3.2506622352
 H         -0.6476282915       -2.4499548314       -4.2363625289
 H         -1.7728141842       -3.2120544953       -3.0422647309
 H          1.2842366250       -3.7320755321       -3.2172233200
 H          0.1443003297       -4.4863867517       -2.0292376634
 H          0.6698203724       -1.4509352029       -2.3519210442
