  62
        -98.93639360
 C         -1.6275023694       -0.2212118954        0.6902417069
 C         -2.8645177476       -0.0308760127        1.3493853410
 C         -4.0681211020       -0.3861784198        0.5829618472
 C         -3.9299048255       -0.8674982055       -0.6660618338
 C         -5.0582632328       -1.1958774544       -1.6021399222
 C         -5.6315522799        0.1005474521       -2.2094076119
 C         -7.0724498434        0.4058865393       -1.7994506727
 H         -7.2886065170        1.4321030708       -2.1042670057
 H         -7.7460685109       -0.2509236194       -2.3539005260
 C         -7.3902670263        0.2512242314       -0.3089778099
 H         -8.3475081878        0.7474318348       -0.1351308860
 H         -7.5397624717       -0.8033611444       -0.0728357436
 C         -6.3530616546        0.8291320242        0.6625622082
 H         -5.7726892949        1.6170402027        0.1818106870
 H         -6.8880767119        1.2917917321        1.4945114785
 C         -5.3941297129       -0.2118233002        1.2704744685
 H         -5.9005872142       -1.1785418983        1.3390034287
 H         -5.1419252157        0.0993116002        2.2886306678
 H         -4.9847663406        0.9305190968       -1.9170140710
 H         -5.5916371365        0.0412629954       -3.2980879899
 H         -4.6536951903       -1.8356939599       -2.3864805077
 H         -5.8317521295       -1.7438044550       -1.0687358551
 O         -2.7225179119       -1.0411360278       -1.2630596040
 C         -1.5415145681       -0.7193593506       -0.6096031751
 O         -0.5122967188       -0.9225275765       -1.2789113956
 O         -2.9580358023        0.4196493377        2.5236412397
 C         -0.3438852091        0.1395531816        1.4166014780
 C          0.3908747445        1.2063543487        0.6440496284
 C         -0.2822667419        2.3824373906        0.3204033776
 C          0.3428453158        3.3754661194       -0.4071481179
 C          1.6532251518        3.2195853547       -0.8253964178
 C          2.3354361375        2.0524602674       -0.5051297703
 C          1.7045091374        1.0582938710        0.2315738352
 H          2.2507587718        0.1645632602        0.4772479726
 N          3.6463996803        1.8516888226       -0.9497230081
 S          4.7358429171        0.9071782715       -0.1149280231
 O          4.6398283721        1.1110892204        1.3119154905
 O          6.0149349295        1.2304768887       -0.7108894581
 C          4.3064172224       -0.7704994439       -0.5268960074
 C          4.3817297025       -1.7387255330        0.4546556097
 C          4.0661943170       -3.0485733629        0.1315321580
 C          3.6868908160       -3.3661784946       -1.1634230368
 C          3.6233116212       -2.3834820931       -2.1392213666
 C          3.9374720944       -1.0718806649       -1.8222580873
 H          3.8890365911       -0.2840973460       -2.5553276858
 H          3.3228471923       -2.6339064232       -3.1438546882
 H          3.4361810421       -4.3852572145       -1.4129455627
 H          4.1139200102       -3.8147472662        0.8890996333
 H          4.6732638338       -1.4434903214        1.4504380650
 H          4.0778469150        2.6300976373       -1.4239341823
 H          2.1412261360        3.9921241538       -1.3998419116
 H         -0.1917718687        4.2811555892       -0.6517509648
 H         -1.3069811862        2.5028597342        0.6451407987
 H         -0.6618191313        0.5701317909        2.3776970665
 C          0.4816410464       -1.1000546092        1.6874735545
 C          1.4528442456       -1.1201872049        2.8283476624
 C          0.1860887866       -1.9163811422        2.9085044223
 H          0.2472114235       -2.9917140611        2.8365370486
 H         -0.5999400681       -1.5662817612        3.5615902527
 H          2.3850603814       -1.6487595284        2.7011742572
 H          1.5362149093       -0.2275690582        3.4299124849
 H          0.7459617637       -1.6337001142        0.7810439993
