  62
        -98.94370005
 C          1.1151325621        1.6466811793       -0.4745382548
 C         -0.0367480752        1.4171905315       -1.2611208659
 C         -1.2642869850        2.1213045415       -0.8532726952
 C         -1.2362383810        2.8973466015        0.2436445324
 C         -2.3705587753        3.6866083549        0.8386522303
 C         -3.0870621543        2.8828685705        1.9365697644
 C         -4.2193285831        1.9899462270        1.4338108433
 H         -4.5653868041        1.3939736691        2.2815335185
 H         -5.0538728863        2.6131428419        1.1042021447
 C         -3.8247535263        1.0414405446        0.2989787496
 H         -2.8407167833        0.6214571123        0.5210491432
 H         -4.5352278637        0.2110145904        0.2946108408
 C         -3.8342190284        1.7138628814       -1.0830339397
 H         -4.3411546736        2.6754897434       -1.0015159160
 H         -4.4287301098        1.1094297489       -1.7716942260
 C         -2.4605218035        1.9137147300       -1.7416064640
 H         -2.2074382481        1.0320816769       -2.3388871665
 H         -2.5232168980        2.7549142722       -2.4405091931
 H         -2.3406947948        2.2672356474        2.4463430872
 H         -3.4992678415        3.5778340696        2.6713304973
 H         -1.9238972448        4.5738712448        1.2926572282
 H         -3.0665198245        4.0011105135        0.0661110451
 O         -0.1204600396        3.0423896454        1.0095381409
 C          1.0679597502        2.4077277532        0.6923995725
 O          1.9892890160        2.6109659519        1.5069567173
 O         -0.0392813208        0.6576369006       -2.2683019744
 C          2.4063681093        0.9318916046       -0.8407690888
 C          2.6643461966       -0.1158930451        0.2132571560
 C          3.8113262546       -0.1868312726        0.9908413950
 C          3.9117948734       -1.1368883243        1.9938296998
 C          2.8748051935       -2.0145984771        2.2509093126
 C          1.7280612248       -1.9602092355        1.4648203531
 C          1.6480843202       -1.0366537184        0.4379829433
 H          0.7593015327       -0.9937042791       -0.1736099200
 N          0.6552201419       -2.8364680334        1.6766626931
 S         -0.9007981348       -2.3718732711        1.2732461190
 O         -1.1355969292       -0.9683532373        1.5240396379
 O         -1.7453211998       -3.2886452640        2.0131603324
 C         -1.0355887270       -2.7516476310       -0.4609140801
 C         -1.8607800506       -1.9836161416       -1.2564939687
 C         -1.9910880805       -2.3059875457       -2.5976594187
 C         -1.2996148460       -3.3881728593       -3.1174499613
 C         -0.4800843187       -4.1551228809       -2.3033844582
 C         -0.3465386446       -3.8389564874       -0.9612517553
 H          0.2862461401       -4.4096442208       -0.3022685650
 H          0.0576243225       -4.9961534700       -2.7109046102
 H         -1.3989242570       -3.6327559987       -4.1633033039
 H         -2.6247043022       -1.7054154829       -3.2304722157
 H         -2.3712213557       -1.1405277786       -0.8208502022
 H          0.6948438709       -3.3849114427        2.5225846682
 H          2.9452238619       -2.7319763143        3.0542279348
 H          4.8046573185       -1.1801818566        2.5991325494
 H          4.6162983896        0.5103820000        0.8271172479
 H          2.1963155251        0.4184483443       -1.7903473471
 C          3.5471919084        1.9027404793       -1.0461370891
 C          4.7200898884        1.5056210457       -1.8905553010
 C          3.7421156649        2.5215308252       -2.3968469591
 H          4.0497798535        3.5550625308       -2.4493241232
 H          3.0590745968        2.2294139392       -3.1809912268
 H          5.7031714619        1.8424371934       -1.5986526069
 H          4.7041435078        0.5218940622       -2.3344563484
 H          3.7264811085        2.5289989967       -0.1800984101
