  62
        -98.93947633
 C          1.3772919112        1.1605501299       -0.1188005826
 C          2.3037770036        0.6864294433        0.8462819303
 C          3.0479578007       -0.5374022406        0.5096381268
 C          2.8177705762       -1.1426470009       -0.6673092807
 C          3.4251453827       -2.4142766492       -1.2049962885
 C          4.9362512839       -2.6095614620       -1.0170687978
 C          5.7681417069       -1.3188914182       -1.0398625499
 H          5.1597213598       -0.4856593901       -1.3957765243
 H          6.5936140164       -1.4418303511       -1.7435868341
 C          6.3646225234       -0.9689577289        0.3258509375
 H          7.2122537005       -0.2957290917        0.1764513667
 H          6.7510790596       -1.8825626529        0.7829535158
 C          5.4103865049       -0.2847914633        1.3042416884
 H          5.1999822752        0.7332412114        0.9655189629
 H          5.9194876091       -0.2019524004        2.2674485430
 C          4.0624644158       -0.9922975510        1.5184740159
 H          3.6754822289       -0.6887435074        2.4947249723
 H          4.1805221810       -2.0730515635        1.5112507699
 H          5.2703942597       -3.2714927016       -1.8178271807
 H          5.1221139004       -3.1333477825       -0.0804452388
 H          3.1864960817       -2.4148979750       -2.2714620811
 H          2.8996621249       -3.2630418381       -0.7570724179
 O          1.9138706261       -0.6580880498       -1.5638255328
 C          1.1737961369        0.4896473048       -1.3231472282
 O          0.3972791090        0.7784853349       -2.2556155128
 O          2.4978742193        1.2613845773        1.9487816521
 C          0.5895955122        2.4124192775        0.2373313536
 C         -0.8061659276        2.0043376799        0.6404539410
 C         -1.1488995951        1.8910127340        1.9836155636
 C         -2.4009169583        1.4355475002        2.3580442527
 C         -3.3285454575        1.0618673800        1.4018582927
 C         -2.9885969084        1.1599080456        0.0590841421
 C         -1.7467890913        1.6491738071       -0.3156552673
 H         -1.4886831413        1.7008587063       -1.3619504693
 N         -3.8962827324        0.7029591622       -0.9193332816
 S         -4.4030649892       -0.8815002297       -0.7030100396
 O         -4.6411981673       -1.4049071903       -2.0298188161
 O         -5.5388912445       -0.8970013144        0.1856566352
 C         -3.0294814058       -1.7174854823        0.0761469866
 C         -3.1932471028       -2.2755393157        1.3277573735
 C         -2.1095884216       -2.8849629003        1.9391198277
 C         -0.8837755420       -2.9225906492        1.2931175028
 C         -0.7370729043       -2.3625194494        0.0337492882
 C         -1.8166011983       -1.7518327015       -0.5829679453
 H         -1.7151983984       -1.3018945691       -1.5585148890
 H          0.2158187541       -2.3852317862       -0.4710308204
 H         -0.0361302937       -3.3876320396        1.7713335282
 H         -2.2212942959       -3.3224875319        2.9179820735
 H         -4.1619297229       -2.2176045926        1.7967681489
 H         -3.5482150919        0.8270084388       -1.8601008399
 H         -4.3006647787        0.6810315640        1.6706941563
 H         -2.6533835284        1.3584488331        3.4043458256
 H         -0.4151041311        2.1448861814        2.7346963670
 H          1.0898739764        2.8240142091        1.1236372874
 C          0.6053516890        3.4615466711       -0.8550304086
 C          0.2225472902        4.8692391155       -0.5124071524
 C          1.6499413872        4.5350395032       -0.8228617209
 H          2.0689558218        4.8739478901       -1.7585550065
 H          2.3591166396        4.5197301642       -0.0081268018
 H         -0.3414199406        5.4405507136       -1.2336401171
 H         -0.0369285744        5.0789646749        0.5142303984
 H          0.3191752834        3.0843481300       -1.8282274878
