  62
        -98.93071405
 C         -2.5179291165       -1.0579504576        0.5024861638
 C         -2.8389219489        0.1666897615        1.1444661438
 C         -4.1475500007        0.7567273274        0.8307380728
 C         -4.9601565677        0.1169219636       -0.0293823941
 C         -6.2947021815        0.6136752955       -0.5080692637
 C         -6.0993598714        1.7106871914       -1.5738828472
 C         -6.5887995432        3.0952644622       -1.1488242678
 H         -6.2087008796        3.8144390747       -1.8775188070
 H         -7.6793504455        3.1176413506       -1.2018644962
 C         -6.1789266192        3.5449037373        0.2568656011
 H         -6.8307693882        3.0772570232        0.9962397314
 H         -6.3651194054        4.6195059576        0.3134710825
 C         -4.7200064381        3.2763216333        0.6486250072
 H         -4.0915520542        3.1950608093       -0.2385869570
 H         -4.3576174138        4.1355156884        1.2167250995
 C         -4.5125899118        2.0342416304        1.5352877555
 H         -3.6772703983        2.2261069690        2.2151280170
 H         -5.4035718067        1.8705606297        2.1479926679
 H         -6.6245387828        1.4279822971       -2.4875181123
 H         -5.0376114116        1.7591077215       -1.8251165611
 H         -6.8240341568       -0.2391312139       -0.9335422276
 H         -6.8681325520        0.9952188832        0.3338677198
 O         -4.6174027972       -1.0488467262       -0.6317158001
 C         -3.3975724292       -1.6665697414       -0.3929180880
 O         -3.2489105559       -2.7256270898       -1.0328827678
 H          1.0670601174       -0.2096830158        1.1540286722
 C          0.9793780401       -0.5944256847        0.1467889141
 C         -0.1279685671       -1.3576678464       -0.1939135052
 C         -0.2347496321       -1.8349840356       -1.4958758426
 C          0.7431763560       -1.5432736789       -2.4293993341
 C          1.8437180374       -0.7769574533       -2.0880681128
 C          1.9623561893       -0.2985390024       -0.7903459017
 N          3.0688840319        0.4939384350       -0.4385529792
 S          4.5798998186        0.0290930376       -1.0361888652
 O          4.7210401795        0.5511214614       -2.3725225545
 O          4.7501518372       -1.3993238229       -0.8950799241
 C          5.6721621932        0.8983595229        0.0710299550
 C          5.9450668717        2.2313470070       -0.1712353526
 C          6.7799467305        2.9122235379        0.7004188960
 C          7.3240246320        2.2533616144        1.7930961943
 C          7.0412534834        0.9152496744        2.0225845182
 C          6.2060762287        0.2284310402        1.1555503132
 H          5.9668662781       -0.8144975031        1.2890176782
 H          7.4682313648        0.4050689203        2.8709908256
 H          7.9754480063        2.7851571330        2.4684802458
 H          7.0046455841        3.9518609267        0.5247441490
 H          5.5080434611        2.6991742592       -1.0379322271
 H          3.1051235144        0.6851543138        0.5533126392
 H          2.6141699852       -0.5497611121       -2.8074682966
 H          0.6487270979       -1.9184098617       -3.4377171704
 H         -1.0947594482       -2.4259363865       -1.7709102518
 C         -1.1728210140       -1.6723367179        0.8511495133
 H         -0.8696026541       -1.1747969637        1.7823818573
 C         -1.2374251381       -3.1650790321        1.1095007973
 C         -0.1595973965       -3.8047225662        1.9302691257
 C         -1.5416943541       -3.6573958291        2.4910510668
 H         -2.1539649124       -4.5399340415        2.5989603201
 H         -1.7038887629       -2.9170554616        3.2609534145
 H          0.6175128466       -3.1651901013        2.3209604500
 H          0.1821292043       -4.7898386184        1.6523983206
 H         -1.6419170428       -3.7298504389        0.2802622645
 O         -2.0627396236        0.7359426732        1.9591727939
