  62
        -98.94608155
 C         -1.1050388296       -1.5291228092       -0.2172327709
 C         -1.1911355197       -0.1213821591       -0.3568636798
 C         -2.2831540597        0.5274890803        0.3820773107
 C         -3.0845714797       -0.1965417104        1.1817558502
 C         -4.2154602997        0.3312033788        2.0226475206
 C         -5.5350954797        0.5063223294        1.2581362808
 C         -5.5701925698        1.6801374102        0.2785784417
 H         -6.6121479298        1.8185511003       -0.0168172582
 H         -5.2539359098        2.5885021298        0.7923474724
 C         -4.7214260398        1.4773023512       -0.9842810285
 H         -5.2999749698        1.7727343419       -1.8623699482
 H         -4.4855012097        0.4167644513       -1.0972772193
 C         -3.4194722298        2.2780377313       -1.0082204178
 H         -2.8814015198        2.0301642521       -1.9262177180
 H         -3.6472564899        3.3460493613       -1.0262350469
 C         -2.4855641798        1.9983102804        0.1764144919
 H         -1.5084559598        2.4346848107       -0.0430593677
 H         -2.8770718398        2.4572608197        1.0845012223
 H         -6.3228451697        0.6560221187        2.0001946609
 H         -5.7538836797       -0.4212838302        0.7241811800
 H         -4.3734776496       -0.3970517519        2.8213169100
 H         -3.9237306497        1.2803328585        2.4738354914
 O         -2.9383524996       -1.5399904306        1.3330121091
 C         -1.9670242396       -2.2315972499        0.6300789485
 O         -1.9717261495       -3.4629202901        0.8383135875
 H          1.4353641403       -0.2591509590       -0.2030715799
 C          1.8695323104       -1.1842213093        0.1374642293
 C          1.2322426805       -2.3835291291       -0.1449090616
 C          1.8037550905       -3.5671592194        0.3065012374
 C          2.9811620605       -3.5449961100        1.0332614874
 C          3.5990002805       -2.3450983702        1.3371636284
 C          3.0329018404       -1.1565124298        0.8903980593
 N          3.6286021003        0.0827924300        1.1670186903
 S          2.6588271802        1.4164196697        1.4654084314
 O          3.5189693702        2.3248087091        2.2001313722
 O          1.4343744203        1.0466682890        2.1394771911
 C          2.3259861502        2.1377329909       -0.1270049480
 C          3.0872619802        1.8002069019       -1.2266213083
 C          2.8136655202        2.4120477229       -2.4395783278
 C          1.7958681501        3.3477720329       -2.5308566670
 C          1.0467629201        3.6819131519       -1.4142479967
 C          1.3141687401        3.0727875809       -0.1995561272
 H          0.7488858001        3.2924953702        0.6930639130
 H          0.2503114600        4.4056167119       -1.4869402261
 H          1.5800520901        3.8156273836       -3.4786544166
 H          3.3914421402        2.1496272536       -3.3115522180
 H          3.8631087002        1.0588287419       -1.1288524889
 H          4.4262841403        0.0532431695        1.7850372303
 H          4.5076477005       -2.3258000106        1.9196088384
 H          3.4155277806       -4.4706125302        1.3795765466
 H          1.3096417706       -4.5055511393        0.1013021866
 C         -0.0620108896       -2.3842375785       -0.9221855716
 H         -0.4588262895       -3.4087579186       -0.9114681025
 C          0.1808335004       -1.9762797574       -2.3626091913
 C          0.7522730105       -2.9807801765       -3.3155574021
 C         -0.6787010996       -2.5538373265       -3.4446370618
 H         -0.9587431796       -1.9198020859       -4.2722324113
 H         -1.4485132695       -3.2534033468       -3.1516967023
 H          0.9517938005       -3.9725008668       -2.9386210229
 H          1.4585524504       -2.6415553759       -4.0573120019
 H          0.4893881904       -0.9448897173       -2.4682998205
 O         -0.4166191797        0.5822806815       -1.0571053892
