  62
        -98.94371235
 C          1.4762285720        1.1513776901        0.0433763838
 C          2.4930544084        0.7498020772        0.9366422843
 C          3.0517423760       -0.5963597497        0.7300093114
 C          2.5528296116       -1.3667898834       -0.2525605750
 C          3.0054833246       -2.7445765737       -0.6499470214
 C          4.0445577472       -2.6725386557       -1.7818601287
 C          5.4916408629       -2.5096452203       -1.3179488282
 H          5.8302160062       -3.4444518000       -0.8664113255
 H          6.1003861755       -2.3359961944       -2.2081819904
 C          5.7373318243       -1.3706816897       -0.3247982395
 H          6.7988263539       -1.1183596799       -0.3609544423
 H          5.1827250763       -0.4838928349       -0.6365793060
 C          5.3646652767       -1.7377116216        1.1194708230
 H          6.2021978496       -1.5030342176        1.7797016139
 H          5.2120705774       -2.8149191313        1.1851150385
 C          4.1365153586       -1.0095594812        1.6873148439
 H          3.6878121797       -1.6244052198        2.4755019613
 H          4.4542607911       -0.0766573612        2.1641254486
 H          3.7700702537       -1.8395533222       -2.4339915908
 H          3.9800875213       -3.5871362462       -2.3747127026
 H          2.1188739507       -3.2660394180       -1.0174567706
 H          3.3933418470       -3.2836618286        0.2094084326
 O          1.5635172479       -0.9458582941       -1.0853399840
 C          0.9929724040        0.3049896693       -0.9530979951
 O          0.0864795775        0.5496011320       -1.7734106736
 O          2.9191145555        1.4868432985        1.8693543378
 C          0.8370088125        2.5175648512        0.2062977949
 C         -0.6556388602        2.3781195583        0.3794387971
 C         -1.5724626555        3.2529921145       -0.1908952176
 C         -2.9320313473        3.0624389516       -0.0129014165
 C         -3.4067361768        1.9867263649        0.7148419408
 C         -2.4972107595        1.1123476290        1.2974386349
 C         -1.1374923477        1.3291243301        1.1521967452
 H         -0.4472833868        0.6382286636        1.6145715332
 N         -2.9218642534       -0.0214377416        2.0249900170
 S         -2.5587183112       -1.5085433939        1.3364662178
 O         -3.1687430553       -2.4868901993        2.2123840943
 O         -1.1372559090       -1.6268960231        1.1403103648
 C         -3.4337444669       -1.4827425783       -0.2181767205
 C         -2.8830728070       -0.8250292594       -1.2996708947
 C         -3.6222585997       -0.7392329842       -2.4704615624
 C         -4.8863599797       -1.3033217880       -2.5394490233
 C         -5.4234668035       -1.9616225620       -1.4429980370
 C         -4.6943642059       -2.0477970662       -0.2686435671
 H         -5.0680743702       -2.5507946207        0.6087724631
 H         -6.4053179878       -2.4033316632       -1.4987845733
 H         -5.4544769511       -1.2299735501       -3.4533851230
 H         -3.1963200208       -0.2261652551       -3.3177661451
 H         -1.8944178547       -0.3971045877       -1.2309239952
 H         -3.9058952017       -0.0045713965        2.2589643513
 H         -4.4671926944        1.8203061573        0.8305000897
 H         -3.6308911139        3.7498936433       -0.4640986286
 H         -1.2212904271        4.0829268687       -0.7820521455
 H          1.2580464847        2.9316488463        1.1351096037
 C          1.2223914142        3.4199264379       -0.9489188412
 C          1.3753601349        4.8969133437       -0.7436649325
 C          2.5861747241        4.0406758852       -0.9564700890
 H          3.1148877626        4.1136101784       -1.8950187180
 H          3.2258574773        3.8358256623       -0.1103480830
 H          1.0753896353        5.5620914064       -1.5393380109
 H          1.2003379909        5.2851470486        0.2482933634
 H          0.8266946778        3.0701554603       -1.8961102652
