  62
        -98.94488215
 C         -1.9167910448       -0.1579838142        0.0446059438
 C         -2.9268351825       -1.0454071944        0.4873090041
 C         -4.2419811586       -0.4451788584        0.7453636410
 C         -4.4042468531        0.8796974584        0.5744275995
 C         -5.7019288120        1.6127666124        0.7506397012
 C         -6.4822860107        1.6853603528       -0.5693404038
 C         -6.6128976112        0.3406173313       -1.2846472390
 H         -7.2071502987        0.5081758026       -2.1855895489
 H         -5.6228964847        0.0125173108       -1.6098046673
 C         -7.2622648284       -0.7662536614       -0.4421915958
 H         -7.8012113989       -0.3249876132        0.3969826061
 H         -7.9956185161       -1.2903718236       -1.0586659616
 C         -6.2852997760       -1.8207794703        0.0810096007
 H         -6.8676246250       -2.6605737886        0.4693470756
 H         -5.6775166437       -2.1983690427       -0.7451247871
 C         -5.3437752966       -1.3602510049        1.2009370473
 H         -4.8479607963       -2.2481966227        1.6039162646
 H         -5.9235747957       -0.8972127781        2.0018743919
 H         -7.4756548970        2.0871749827       -0.3614174242
 H         -5.9677656081        2.3798623600       -1.2375769925
 H         -6.2978117306        1.1096540377        1.5096719056
 H         -5.4807197453        2.6268361858        1.0877736511
 O         -3.4038316053        1.7042941900        0.1715403450
 C         -2.1386188929        1.2099484798       -0.1132114160
 O         -1.3226518020        2.0739866071       -0.4855874263
 O         -2.7351215255       -2.2787017439        0.6628841673
 C         -0.5380132472       -0.7163668312       -0.2621353261
 C          0.4907648960       -0.0407598113        0.6091145046
 C          0.3169308172       -0.0798552363        1.9913356529
 C          1.2099100482        0.5498327995        2.8347168217
 C          2.3045155691        1.2228340337        2.3191751855
 C          2.4916502546        1.2632655365        0.9436895665
 C          1.5914885548        0.6268112904        0.0976534187
 H          1.7547920882        0.6914675504       -0.9644361499
 N          3.5850546198        1.9533104306        0.3952662537
 S          4.5059064131        1.2567963429       -0.8126221505
 O          5.7198984429        2.0424870363       -0.8402477614
 O          3.7612895002        1.1907792976       -2.0433056658
 C          4.8562367549       -0.3823394606       -0.2042048583
 C          5.8642531179       -0.5305290015        0.7288900926
 C          6.1031950387       -1.7851782024        1.2648243917
 C          5.3275032066       -2.8638153399        0.8671271547
 C          4.3201975925       -2.6983549784       -0.0705741135
 C          4.0786817182       -1.4460792031       -0.6136661039
 H          3.3074239658       -1.2793598390       -1.3471179834
 H          3.7192991419       -3.5385110422       -0.3803555961
 H          5.5101009209       -3.8399720727        1.2879947551
 H          6.8891038351       -1.9184055089        1.9906866499
 H          6.4504810520        0.3316454558        1.0027842170
 H          4.1759022531        2.4047216687        1.0781265492
 H          2.9995623784        1.7242920258        2.9753902605
 H          1.0563376484        0.5167915042        3.9027818892
 H         -0.5404823912       -0.6028324129        2.3926507800
 H         -0.5869746721       -1.7780249360        0.0219593906
 C         -0.2480285779       -0.6234872917       -1.7446450602
 C          0.6593630051       -1.6207302890       -2.3983175978
 C         -0.8152300844       -1.6629836628       -2.6626837765
 H         -1.1781159048       -1.3526038666       -3.6311060133
 H         -1.3917980595       -2.4589667544       -2.2142516670
 H          1.3160184495       -1.2808355013       -3.1858363380
 H          1.0756373318       -2.3973515543       -1.7743420616
 H         -0.2292071995        0.3986964636       -2.1068969069
