  62
        -98.93394671
 C          2.4516147984        0.8999687131       -0.0005021978
 C          3.6195038279        0.9499963949        0.7931833738
 C          4.8650675302        0.4731296203        0.1671282555
 C          4.8324268107        0.0115779705       -1.0973059415
 C          5.9361132407       -0.4976550386       -2.0012487809
 C          7.3101495551       -0.8487284806       -1.4367083473
 C          7.3305401225       -2.0702458060       -0.5182050622
 H          7.1428802194       -2.9616932381       -1.1220781172
 H          8.3321802330       -2.1619351528       -0.0925997853
 C          6.3080989116       -2.0601975805        0.6154120221
 H          6.4241797719       -2.9900881698        1.1789590404
 H          5.2984654124       -2.0620646746        0.1990036768
 C          6.4369624241       -0.9010113777        1.6015287962
 H          7.4524211010       -0.8692976409        2.0012082744
 H          5.7564755973       -1.1000616203        2.4340809988
 C          6.0870260317        0.4878253872        1.0400987544
 H          5.8515690950        1.1424669067        1.8843937222
 H          6.9314606680        0.9257660293        0.5134971325
 H          7.9508187875       -1.0714155013       -2.2943187014
 H          7.7430910490        0.0125304772       -0.9365515690
 H          5.5228558750       -1.3749444845       -2.5091136799
 H          6.0647638023        0.2706273317       -2.7716829523
 O          3.6767861500       -0.0157798591       -1.8250814780
 C          2.4667784712        0.4136882731       -1.3060308599
 O          1.5060252319        0.3160152971       -2.0922467903
 O          3.6255341459        1.3799622605        1.9787026304
 C          1.1366327857        1.3738019814        0.5893450202
 C          0.1297139302        0.2495593085        0.5870712668
 C          0.5051310158       -0.9883289164        1.1031694472
 C         -0.3831385292       -2.0456703856        1.1238781681
 C         -1.6687909839       -1.8937804525        0.6345439053
 C         -2.0599519318       -0.6606393031        0.1335566860
 C         -1.1651733216        0.4039375952        0.1193217465
 H         -1.4847378746        1.3558214320       -0.2752686491
 N         -3.3615574461       -0.4971619138       -0.3709424886
 S         -4.6268156635       -1.2216875586        0.4812947523
 O         -4.4654680918       -0.9911367438        1.8994639232
 O         -4.7218120832       -2.6020194127        0.0758937540
 C         -6.0265393833       -0.3118628534       -0.1418766697
 C         -6.5308100079        0.7422432847        0.5960742918
 C         -7.6075526677        1.4566745503        0.0947481623
 C         -8.1564095323        1.1085958903       -1.1303018588
 C         -7.6386477240        0.0483908852       -1.8597099315
 C         -6.5630391484       -0.6710710151       -1.3639492845
 H         -6.1340541213       -1.5073736781       -1.8908402644
 H         -8.0696236348       -0.2199941460       -2.8107303782
 H         -8.9950770170        1.6653434119       -1.5176217442
 H         -8.0139121736        2.2795927811        0.6604892910
 H         -6.0782140796        0.9711752107        1.5475784571
 H         -3.5681951726        0.4657813255       -0.5981846173
 H         -2.3725512454       -2.7106080975        0.6431766011
 H         -0.0738907104       -3.0003117605        1.5233476573
 H          1.5091110820       -1.1114151749        1.4868059363
 H          1.3607613201        1.6261028210        1.6367360052
 C          0.6630078842        2.6241225150       -0.1214554644
 C         -0.1884840135        3.6268720199        0.5972938276
 C          1.2409840772        3.9464137211        0.2814336055
 H          1.4508896435        4.6732949683       -0.4887697375
 H          1.9578341541        3.9475684812        1.0894273942
 H         -0.9598609745        4.1411509832        0.0438404260
 H         -0.4456238954        3.4183177064        1.6249086518
 H          0.4833383899        2.4578491737       -1.1778900978
