  62
        -98.94599209
 C         -1.3381788315       -1.1869433718       -0.0726855523
 C         -2.1282255805       -0.5848359254        0.9434789593
 C         -2.8762688269        0.6204108972        0.5656922502
 C         -2.7727399083        1.0877762719       -0.6914371723
 C         -3.5165046848        2.2739620574       -1.2320215299
 C         -4.8558625698        1.8525094247       -1.8526103149
 C         -5.6922741475        0.9392879917       -0.9561636756
 H         -6.6258434888        0.7328336545       -1.4840682692
 H         -5.1742405315       -0.0150134149       -0.8361885029
 C         -6.0060118550        1.5226937906        0.4287443933
 H         -7.0610920965        1.3490298614        0.6504672160
 H         -5.8514903353        2.6022719673        0.4196779318
 C         -5.2023433565        0.9045815093        1.5744794300
 H         -5.6515069101        1.2279112682        2.5172201472
 H         -5.2820101871       -0.1845311246        1.5314195603
 C         -3.7155607169        1.2785817863        1.6239171679
 H         -3.6096805828        2.3643654202        1.5798437283
 H         -3.3173694266        0.9305995242        2.5812006464
 H         -4.6538372029        1.3232906254       -2.7868556188
 H         -5.4248159388        2.7533388036       -2.0898290271
 H         -3.6867060616        2.9878444250       -0.4281567306
 H         -2.9035281813        2.7461273992       -2.0021389722
 O         -1.9969399666        0.4966604310       -1.6334171381
 C         -1.2578657283       -0.6446349600       -1.3550340852
 O         -0.5919813380       -1.0450836211       -2.3317890827
 H          1.3451130624       -1.5617003539       -1.3970980718
 C          1.7095619243       -1.5828483060       -0.3811506723
 C          0.8739988454       -2.0264551865        0.6341010851
 C          1.3523176209       -2.0170244712        1.9391423741
 C          2.6332246812       -1.5723370172        2.2189291026
 C          3.4546380168       -1.1088345719        1.2068623882
 C          2.9802638961       -1.1081040302       -0.0983099445
 N          3.7772818667       -0.5564080059       -1.1246899831
 S          4.2187417900        1.0399660129       -0.8519879479
 O          4.3026531657        1.6573569717       -2.1569020624
 O          5.4297274451        1.0663162054       -0.0696973717
 C          2.8812912514        1.7419720449        0.1030704970
 C          1.6170599000        1.7729143438       -0.4519968323
 C          0.5667112522        2.2691191083        0.3024071905
 C          0.7938761739        2.7206971529        1.5930330446
 C          2.0695520462        2.6889530533        2.1337570734
 C          3.1241171742        2.1926966894        1.3845766620
 H          4.1301455956        2.1425933597        1.7679214420
 H          2.2430305901        3.0424282958        3.1372303792
 H         -0.0316480231        3.0956622837        2.1770423317
 H         -0.4280296365        2.2888485216       -0.1149839020
 H          1.4592366051        1.4107995732       -1.4564251456
 H          3.3466387127       -0.6405614243       -2.0354429312
 H          4.4446834976       -0.7308753931        1.4051452760
 H          2.9907818716       -1.5729167213        3.2370087767
 H          0.7027891298       -2.3395123307        2.7394722785
 C         -0.5494959342       -2.4249942589        0.3282961200
 H         -1.0097536379       -2.7683646516        1.2640298777
 C         -0.6226461421       -3.5501267540       -0.6834133408
 C         -0.2984045433       -4.9441355684       -0.2398098411
 C         -1.7128422949       -4.5709048073       -0.5652549923
 H         -2.1557643440       -4.9580569335       -1.4706574888
 H         -2.4125791198       -4.4640935256        0.2508322625
 H         -0.0391362062       -5.0904677442        0.7977685541
 H          0.2332322940       -5.5906263581       -0.9209816638
 H         -0.3268325879       -3.2587371990       -1.6825912141
 O         -2.2051274370       -1.0403863221        2.1141146226
