  62
        -98.94441616
 C         -2.0202911507       -0.9751947892       -0.0380058506
 C         -2.6627417407       -0.3559805598        1.0673654898
 C         -3.3006450706        0.9409822805        0.8153531806
 C         -3.2226233204        1.4795952612       -0.4147773791
 C         -3.8518445702        2.7783377216       -0.8262089883
 C         -5.2685348002        2.5633291721       -1.3768286085
 C         -6.1528715104        1.6952367216       -0.4817042091
 H         -7.1361982004        1.6387653620       -0.9533327092
 H         -5.7480872305        0.6809677616       -0.4587197198
 C         -6.3032616904        2.2125763207        0.9556718312
 H         -6.0150549403        3.2632524307        1.0032675719
 H         -7.3553875704        2.1513555407        1.2413522811
 C         -5.5115042106        1.4225408300        1.9993097707
 H         -5.7253723007        0.3564305601        1.8910676300
 H         -5.8573369206        1.7272036194        2.9905113909
 C         -3.9898571806        1.6140742298        1.9690519510
 H         -3.7519738604        2.6797313898        1.9882942717
 H         -3.5780442907        1.1541094692        2.8720085707
 H         -5.7352260901        3.5399829522       -1.5170734879
 H         -5.1899740602        2.0805521527       -2.3537070588
 H         -3.8809234902        3.4473823910        0.0318305721
 H         -3.2310936401        3.2279928620       -1.6033876180
 O         -2.5899495004        0.8679427818       -1.4459070494
 C         -1.9692464106       -0.3626163684       -1.2899909102
 O         -1.4322376805       -0.7770296078       -2.3387025404
 H          0.5332339593       -1.4244479285       -1.5178129107
 C          0.9505079792       -1.5791000192       -0.5335823507
 C          0.1369473791       -2.0489929497        0.4882457089
 C          0.6886598490       -2.2092552506        1.7539876488
 C          2.0176820190       -1.9024735209        1.9892276091
 C          2.8183554992       -1.4141359904        0.9716678695
 C          2.2726786293       -1.2442712195       -0.2933968704
 N          3.0704538594       -0.6805892189       -1.3218011300
 S          3.2579416796        0.9880109909       -1.1431460190
 O          2.0876428596        1.5908463607       -0.5422009686
 O          3.6370744297        1.4825214217       -2.4490169886
 C          4.6454753795        1.1238341501       -0.0365828988
 C          4.4572905895        1.6117071693        1.2414867015
 C          5.5484848594        1.6982082086        2.0921336417
 C          6.8005756894        1.2971139687        1.6515706315
 C          6.9728154395        0.8108433095        0.3638946912
 C          5.8863567495        0.7219730602       -0.4916347889
 H          5.9735127695        0.3561912908       -1.5010516492
 H          7.9481719094        0.5009894496        0.0251166811
 H          7.6472791794        1.3647928682        2.3162473316
 H          5.4159829794        2.0758944580        3.0932318719
 H          3.4637032295        1.9064587292        1.5395039216
 H          2.6772609094       -0.8500427083       -2.2388978302
 H          3.8510061492       -1.1607902106        1.1482269297
 H          2.4314337389       -2.0343865916        2.9771626591
 H          0.0588984789       -2.5543095711        2.5610153786
 C         -1.3305196809       -2.3028967394        0.2394335086
 H         -1.7716566010       -2.6659142300        1.1773720784
 C         -1.5520594409       -3.3500547687       -0.8323100520
 C         -1.3502003211       -4.7939639189       -0.4860853529
 C         -2.7321912411       -4.2669175486       -0.7266883127
 H         -3.2453146210       -4.5502424080       -1.6333603229
 H         -3.3864506211       -4.1431063291        0.1239617073
 H         -0.9112131312       -5.4437287085       -1.2273442633
 H         -1.0684217512       -5.0293373296        0.5289000969
 H         -1.2672332508       -3.0240655481       -1.8239412318
 O         -2.7005494809       -0.8722916305        2.2158937395
