  62
        -98.93349083
 C         -2.5875994534       -1.2545105246        0.0476416526
 C         -2.7081343049       -0.2312367175       -0.9202688326
 C         -4.0579141621        0.3324038337       -1.1074514532
 C         -5.0763547018       -0.1506987573       -0.3749022424
 C         -6.5049196991        0.3188088967       -0.3714238322
 C         -6.7292634599        1.3647155876        0.7338573140
 C         -6.4299468726        2.8069753379        0.3267221697
 H         -7.2017712174        3.1516492868       -0.3646875513
 H         -6.5003771730        3.4202371322        1.2280958669
 C         -5.0599485447        3.0361902175       -0.3172588838
 H         -4.2961948275        2.4800105686        0.2298663284
 H         -4.8174393007        4.0961860748       -0.2187458453
 C         -5.0205603836        2.6541342617       -1.8044038931
 H         -4.6072919494        3.4853674387       -2.3793991900
 H         -6.0399565540        2.5080289233       -2.1613152988
 C         -4.1725839701        1.4187350702       -2.1417899325
 H         -4.5418266709        0.9765138602       -3.0731220549
 H         -3.1394932809        1.7275631617       -2.3306740007
 H         -7.7706695135        1.3144751951        1.0581681867
 H         -6.1075219124        1.0868912650        1.5889791508
 H         -6.7851898661        0.7089416530       -1.3452055331
 H         -7.1197823979       -0.5564260477       -0.1516144067
 O         -4.9152696628       -1.1438555939        0.5434038524
 C         -3.6784408376       -1.7111120785        0.7856253011
 O         -3.6771723332       -2.5953629603        1.6664471708
 O         -1.7366423134        0.1978851827       -1.5963624132
 C         -1.2328603119       -1.8822301833        0.3214024155
 C         -0.2559679302       -0.8161712687        0.7564959357
 C         -0.6159465231        0.0303450817        1.8021049558
 C          0.2421919362        1.0208517933        2.2381212758
 C          1.4793487643        1.1921816301        1.6416372516
 C          1.8531496564        0.3481000889        0.6059225100
 C          0.9918521129       -0.6561350196        0.1770256448
 H          1.2976485079       -1.3047408016       -0.6290388900
 N          3.1001677585        0.5232655958       -0.0207925710
 S          4.4433433675        0.8016208444        0.9638277330
 O          4.4765560597       -0.1623336870        2.0416715555
 O          4.4467198887        2.1873131226        1.3599835370
 C          5.7685262998        0.4978554317       -0.1879135864
 C          6.1535123672        1.5153076588       -1.0401705736
 C          7.1641881556        1.2738705108       -1.9569874640
 C          7.7682515980        0.0262548564       -2.0070290183
 C          7.3713690072       -0.9847586141       -1.1447180148
 C          6.3605532118       -0.7503747819       -0.2258010095
 H          6.0265384340       -1.5038556902        0.4694974838
 H          7.8448952551       -1.9525300519       -1.1845447288
 H          8.5554415020       -0.1586473494       -2.7207905440
 H          7.4773211841        2.0577060905       -2.6276602341
 H          5.6611890681        2.4703016422       -0.9594971018
 H          3.2913539897       -0.2050443916       -0.6954456368
 H          2.1580018747        1.9624039166        1.9707055588
 H         -0.0536625139        1.6701706660        3.0489255043
 H         -1.5839409105       -0.0997198535        2.2682652416
 H         -1.3821296407       -2.5690318745        1.1675292682
 C         -0.7768936140       -2.6824648525       -0.8806039294
 C          0.1546719078       -3.8431817995       -0.7051517412
 C         -1.2840251037       -4.0818094908       -1.0499565648
 H         -1.5274048927       -4.4254435675       -2.0440844428
 H         -1.9401452262       -4.4667073457       -0.2827243876
 H          0.8980968273       -4.0290472736       -1.4657884771
 H          0.4806855916       -4.0754256711        0.2975979133
 H         -0.6803414000       -2.0745217286       -1.7728490836
