  62
        -98.94494055
 C          2.2017367206        0.9746034923        0.5411342612
 C          2.3070054708        0.1374909180       -0.5962836491
 C          3.1060329172       -1.0815186844       -0.4156208637
 C          3.6411842329       -1.3607456822        0.7866932445
 C          4.4650760653       -2.5719684968        1.1307043983
 C          5.9505331837       -2.4388532101        0.7674856521
 C          6.2650276427       -2.5124810519       -0.7272272649
 H          7.3466968603       -2.6272401781       -0.8209326375
 H          5.8049336577       -3.4060298369       -1.1502777722
 C          5.8289006632       -1.2779665950       -1.5286663642
 H          5.6444222634       -0.4460765316       -0.8451340380
 H          6.6384880778       -0.9717592941       -2.1947814773
 C          4.5867278235       -1.4903505406       -2.3942423896
 H          4.8010938787       -2.2289449981       -3.1697914236
 H          4.3453764786       -0.5450511134       -2.8867175816
 C          3.3461564115       -1.9471068892       -1.6153508423
 H          2.4742785462       -1.8561831110       -2.2684932900
 H          3.4504825350       -2.9906413737       -1.3181309000
 H          6.3255045530       -1.4963833057        1.1730131599
 H          6.4814050732       -3.2513105402        1.2688881629
 H          4.3855362963       -2.7053194831        2.2118687540
 H          4.0458999207       -3.4515800126        0.6410312422
 O          3.4699521482       -0.5555072243        1.8696381716
 C          2.7625126513        0.6329177849        1.7706859514
 O          2.6933828701        1.2797539609        2.8363512833
 H         -0.1690774412        0.4435363999        1.5181415389
 C         -0.6836459106        0.9880405714        0.7346572368
 C         -0.0052096095        1.9935167511        0.0565391644
 C         -0.6758628882        2.6845102965       -0.9434678026
 C         -1.9835078432        2.3602985928       -1.2621681670
 C         -2.6515352955        1.3538822196       -0.5897849702
 C         -1.9923029228        0.6605299747        0.4171564057
 N         -2.6670933241       -0.3536904862        1.1210795624
 S         -3.4313686673       -1.5573133855        0.2312855195
 O         -3.4868018056       -2.7001730390        1.1175593413
 O         -2.7920046504       -1.7655014556       -1.0470935582
 C         -5.0799820065       -0.9256108979       -0.0014158658
 C         -5.8126483424       -0.5903267363        1.1204278993
 C         -7.0980658041       -0.0991730738        0.9575945660
 C         -7.6271720079        0.0444089021       -0.3165192381
 C         -6.8804243475       -0.3010748951       -1.4324446088
 C         -5.5932250849       -0.7918784754       -1.2766064828
 H         -4.9727937828       -1.0682015968       -2.1144084739
 H         -7.2934745457       -0.1896705092       -2.4220870715
 H         -8.6276622694        0.4276428098       -0.4405599262
 H         -7.6818912234        0.1700537616        1.8229864697
 H         -5.3655552534       -0.7212476081        2.0916837200
 H         -2.1143892467       -0.7647269272        1.8598514090
 H         -3.6674367191        1.0953752144       -0.8395694287
 H         -2.4898226195        2.8999194379       -2.0478692443
 H         -0.1717834593        3.4696743295       -1.4822529772
 C          1.4243739142        2.2757170336        0.4520914226
 H          1.4192564574        2.6976442554        1.4679600097
 C          2.1320778020        3.2421224919       -0.4746114375
 C          2.0027591463        4.7202988816       -0.2669175483
 C          3.2927997359        4.0285606122        0.0533871691
 H          4.1424798424        4.1911920677       -0.5926324286
 H          3.5558742972        3.8858510879        1.0917388048
 H          1.9697069448        5.3621890740       -1.1342304777
 H          1.3920518765        5.0577131543        0.5566924619
 H          2.2013621932        2.8685670793       -1.4898128024
 O          1.7653408937        0.3920645681       -1.7028419439
