  62
        -98.93845973
 C          2.2522472045        1.2192508005        0.2691881487
 C          2.3940606665        0.1078505943       -0.5932156214
 C          3.2930861353       -0.9711610360       -0.1390967634
 C          3.9153639563       -0.8671890448        1.0492228173
 C          4.8355795240       -1.8189417235        1.7849539440
 C          5.4693899952       -3.0080396415        1.0677299639
 C          6.4946420182       -2.6370538173       -0.0032961056
 H          6.8007335208       -3.5524925912       -0.5142549231
 H          7.3763285828       -2.2202310401        0.4898429967
 C          6.0249885025       -1.6214108204       -1.0416708102
 H          6.8513064021       -1.4470423319       -1.7360176370
 H          5.8095080037       -0.6693587830       -0.5525331222
 C          4.8090277699       -2.0421484219       -1.8645427503
 H          4.9958429826       -3.0126315529       -2.3284268366
 H          4.6826924316       -1.3077572154       -2.6645886035
 C          3.4801177736       -2.1164717208       -1.0926726193
 H          3.3740847402       -3.0666681377       -0.5743576434
 H          2.6637714123       -2.0501728655       -1.8180207485
 H          4.6991208062       -3.6515261415        0.6526137272
 H          5.9885288179       -3.5911553844        1.8332781727
 H          5.6274658856       -1.1951732657        2.2116940342
 H          4.2518518952       -2.1970653392        2.6317412966
 O          3.7354063779        0.2185961974        1.8566163126
 C          2.9173196512        1.2710837408        1.4972537825
 O          2.8687200575        2.1888520407        2.3399453374
 H         -0.2721178820        0.7885025135       -1.4875911071
 C         -0.7701223798        1.1829576326       -0.6147789000
 C         -0.0816755038        2.0383927048        0.2334603992
 C         -0.7247000411        2.4998503085        1.3766883688
 C         -2.0235062264        2.1149330204        1.6585890055
 C         -2.7044514011        1.2580382926        0.8120453652
 C         -2.0655361455        0.7812088103       -0.3245764526
 N         -2.7413267432       -0.1106110213       -1.1803939169
 S         -3.3509897112       -1.5106468518       -0.4759524291
 O         -2.5982772375       -1.8858146346        0.6996815915
 O         -3.4079571819       -2.4854663355       -1.5436009074
 C         -5.0130095902       -1.0597883386       -0.0209297786
 C         -5.8495121289       -0.5785601306       -1.0092259727
 C         -7.1484390216       -0.2303470397       -0.6752403412
 C         -7.5874753705       -0.3710373854        0.6330016789
 C         -6.7364781485       -0.8587397784        1.6128986379
 C         -5.4353192834       -1.2079164587        1.2855671181
 H         -4.7358846655       -1.5857451549        2.0143949222
 H         -7.0792134968       -0.9678748959        2.6293232377
 H         -8.5989691464       -0.0993108745        0.8906239137
 H         -7.8132285221        0.1491337311       -1.4343858832
 H         -5.4694400756       -0.4886124039       -2.0130745758
 H         -2.2000104881       -0.3487889938       -2.0003229353
 H         -3.7129219943        0.9465804993        1.0307933663
 H         -2.5096848098        2.4824480550        2.5494652199
 H         -0.1880688933        3.1473899284        2.0553192582
 C          1.3559521753        2.4103400990       -0.0408705477
 H          1.6429917781        3.1882737628        0.6788857829
 C          1.5553555026        2.9565007584       -1.4403429347
 C          1.0991134064        4.3504489262       -1.7452574249
 C          2.5633107049        4.0418419526       -1.6631917969
 H          3.1417959580        4.0275376556       -2.5747590446
 H          3.1132743140        4.3974194069       -0.8037968308
 H          0.6557552773        4.9172976839       -0.9406381138
 H          0.6695821795        4.5511877049       -2.7146235519
 H          1.4549187083        2.2106536499       -2.2172739238
 O          1.8060450085       -0.0094336051       -1.7025356282
