  62
        -98.94946416
 C         -2.0458309378       -0.4167548637       -0.3176809105
 C         -1.3669703048       -1.3285041855       -1.1589935656
 C         -0.9711646118       -2.5994378864       -0.5418186235
 C         -1.2168857013       -2.8093281133        0.7643903977
 C         -0.8747675697       -4.0517602729        1.5414213457
 C          0.5774827186       -4.0889787831        2.0368824414
 C          1.6209938171       -4.3959220369        0.9621971373
 H          2.5538499963       -4.6287295445        1.4796992344
 H          1.3216564243       -5.2873826534        0.4090634406
 C          1.8775202938       -3.2398097721       -0.0142413589
 H          2.9544700214       -3.1189242180       -0.1585193284
 H          1.5144018107       -2.3083567801        0.4281795252
 C          1.2547198531       -3.4301617526       -1.3972828668
 H          1.4890413030       -2.5518016796       -2.0022357459
 H          1.7064394115       -4.2990536182       -1.8817154052
 C         -0.2682786220       -3.6154845662       -1.3934313162
 H         -0.6291673316       -3.4910152358       -2.4177956041
 H         -0.5201563423       -4.6208631532       -1.0554913260
 H          0.8117987294       -3.1283472888        2.5033045996
 H          0.6409857165       -4.8603950560        2.8082514256
 H         -1.0777904213       -4.9355774681        0.9353371068
 H         -1.5365911630       -4.0652663187        2.4101774381
 O         -1.8469128987       -1.8960072514        1.5482808220
 C         -2.2661818464       -0.6789473312        1.0349056820
 O         -2.8277377374        0.0614276965        1.8659139975
 O         -1.1053554672       -1.0936700727       -2.3705656920
 C         -2.4833344427        0.9288891133       -0.8726549246
 C         -1.8390451984        2.0247846807       -0.0594712841
 C         -2.5201039538        3.1149488601        0.4633690712
 C         -1.8580715870        4.0240982579        1.2717416784
 C         -0.5229709157        3.8570695800        1.5887749550
 C          0.1733769036        2.7785945292        1.0511594795
 C         -0.4807718579        1.9028420359        0.2038414223
 H          0.0558569853        1.0652307342       -0.2096263855
 N          1.5280736811        2.5783150155        1.3417036278
 S          2.2786004851        1.0871587466        1.2365454721
 O          1.3780537684       -0.0140282030        1.4815369213
 O          3.4051935935        1.2013512617        2.1393664206
 C          2.8934472629        1.0715031166       -0.4352299123
 C          2.3062071704        0.2838892318       -1.4032676046
 C          2.8016529865        0.3260865931       -2.6973530908
 C          3.8735617463        1.1503135310       -3.0006341576
 C          4.4583346745        1.9330463075       -2.0159800970
 C          3.9647156963        1.8961588425       -0.7226337516
 H          4.3949271190        2.4791019953        0.0746022081
 H          5.2940667923        2.5712047763       -2.2536218299
 H          4.2542892026        1.1800901809       -4.0093012603
 H          2.3377478697       -0.2822233851       -3.4579723095
 H          1.4724886572       -0.3505331623       -1.1443415688
 H          1.9034271138        3.1493593859        2.0831968522
 H         -0.0225981512        4.5465051365        2.2515070901
 H         -2.3984850506        4.8637290387        1.6823607560
 H         -3.5703701372        3.2432644273        0.2588436702
 H         -2.0882347316        0.9701204078       -1.8986107414
 C         -3.9935184886        1.0195237188       -0.9244832868
 C         -4.6639727418        1.8886805963       -1.9451707088
 C         -4.7184012239        0.3973426883       -2.0788603343
 H         -5.6541302144       -0.1064546619       -1.8884478627
 H         -4.1181259902       -0.0724150171       -2.8442003515
 H         -5.5670704077        2.4096338729       -1.6651642325
 H         -4.0317432765        2.4354193765       -2.6280767936
 H         -4.4470370943        0.9341613765        0.0569600532
