  62
        -98.93558002
 C          1.6932604696        1.1544938407        0.6170663994
 C          1.9214418000       -0.2323774592        0.8034708301
 C          3.2788277601       -0.7430731689        0.5338462401
 C          4.2260901898        0.1272718412        0.1386121794
 C          5.6627941198       -0.1491933186       -0.2177844207
 C          5.8168591797       -0.7944071593       -1.6039875004
 C          4.8308554400       -1.9213710397       -1.8992995496
 H          3.8125545199       -1.5380440700       -1.8120637896
 H          4.9751697899       -2.2236307303       -2.9399907594
 C          4.9834488006       -3.1646737092       -1.0261549789
 H          5.9966281907       -3.5575934690       -1.1367851989
 H          4.2917123507       -3.9176026396       -1.4123015684
 C          4.6941283908       -2.9765209685        0.4649535010
 H          5.5304974208       -2.5022121680        0.9714025906
 H          4.5914843512       -3.9732282783        0.9038595816
 C          3.4007710906       -2.2287241687        0.7732171609
 H          2.5758310507       -2.6928857393        0.2209366913
 H          3.1559955809       -2.3759940782        1.8318586210
 H          5.6688544193       -0.0164203097       -2.3570343008
 H          6.8386044898       -1.1659219090       -1.6996228804
 H          6.1741503495        0.8159964416       -0.2250793213
 H          6.1266287502       -0.7631941380        0.5485047795
 O          3.9619830394        1.4527021110       -0.0321838612
 C          2.7106007692        2.0023500907        0.1813979387
 O          2.6611598688        3.2272412506       -0.0483452919
 O          1.0203027204       -1.0259056792        1.1872993707
 C          0.2879661695        1.6525049304        0.9027549694
 C         -0.5310620608        1.7479038695       -0.3621798405
 C         -0.2035780613        2.6392136690       -1.3785674710
 C         -0.9850668315        2.7140127382       -2.5167667309
 C         -2.1110075613        1.9208800477       -2.6553989403
 C         -2.4442986008        1.0244867182       -1.6469115997
 C         -1.6457901806        0.9369508090       -0.5151498198
 H         -1.8985530102        0.2289928594        0.2588991506
 N         -3.5650982906        0.1934228578       -1.7657506790
 S         -4.4709878402       -0.2228795218       -0.4230601086
 O         -5.7530386502       -0.6180073324       -0.9663957381
 O         -4.4964369303        0.8403627588        0.5538507608
 C         -3.6554791396       -1.6599332512        0.2370186520
 C         -3.3241998394       -1.7066121703        1.5761631620
 C         -2.7040530189       -2.8408756499        2.0749391824
 C         -2.4297185288       -3.9041602102        1.2295747530
 C         -2.7728526590       -3.8437073111       -0.1125743270
 C         -3.3931051695       -2.7124816115       -0.6169440575
 H         -3.6760027397       -2.6293430522       -1.6531153075
 H         -2.5557683389       -4.6733025014       -0.7661803766
 H         -1.9424757384       -4.7835892599        1.6200942834
 H         -2.4320939587       -2.8877227492        3.1172638624
 H         -3.5494593395       -0.8543179001        2.1983917115
 H         -4.1372121608        0.3544101372       -2.5813470590
 H         -2.7263714615        1.9916948871       -3.5395225702
 H         -0.7211206919        3.4065882678       -3.3019628814
 H          0.6713771486        3.2617014893       -1.2702791016
 H         -0.1691530901        0.8738240906        1.5287371899
 C          0.2387153092        2.9635711408        1.6629801387
 C         -1.0465967607        3.3582740008        2.3248531387
 C          0.1290386296        2.9427854416        3.1564932287
 H          0.6538076894        3.6983757521        3.7217236882
 H          0.0947504299        1.9787615818        3.6428561493
 H         -1.3290659011        4.3999550407        2.3187817782
 H         -1.8831995206        2.6797609805        2.2399838093
 H          0.8373908589        3.7464871107        1.2166098481
