  62
        -98.94019600
 C         -2.2378058486       -0.8497961994        0.4178052524
 C         -1.0706860739       -1.1282556067        1.1671458977
 C         -0.3321565932       -2.3444536464        0.7951227071
 C         -0.7615092143       -3.0906888242       -0.2367634744
 C         -0.0137265183       -4.2419290291       -0.8452765241
 C          1.1207135929       -3.6912229595       -1.7352279914
 C          2.5295822853       -4.0354978316       -1.2511961000
 H          2.7366241985       -5.0848052160       -1.4740125386
 H          3.2261153782       -3.4281574182       -1.8337372490
 C          2.7972921564       -3.8072530133        0.2397496576
 H          2.4027356789       -4.6466170938        0.8149939845
 H          3.8811050587       -3.8181352392        0.3733585307
 C          2.2423850088       -2.5033170922        0.8274176506
 H          2.1223912646       -1.7498257540        0.0473437535
 H          2.9728726700       -2.1115412100        1.5390205635
 C          0.9081975195       -2.6648826992        1.5825919261
 H          0.8981947952       -1.9711902529        2.4279418292
 H          0.8331573110       -3.6785615106        1.9853010365
 H          1.0151175560       -2.6045395211       -1.7955986005
 H          1.0047272598       -4.0728682633       -2.7513508976
 H          0.3876922682       -4.8824083678       -0.0630670346
 H         -0.7215508753       -4.8173274289       -1.4424542359
 O         -1.9010114816       -2.8113239210       -0.9203049248
 C         -2.6483178864       -1.6859617677       -0.6244297729
 O         -3.6569448668       -1.5396576281       -1.3460954206
 O         -0.6284083128       -0.4008008749        2.0979794036
 C         -3.0597033212        0.4226395530        0.5669744508
 C         -2.4868046896        1.4761005627       -0.3547976857
 C         -3.2960476320        2.1935605281       -1.2263607213
 C         -2.7397543897        3.0959266564       -2.1162779258
 C         -1.3689581554        3.2664854095       -2.1811936702
 C         -0.5500897771        2.5541243790       -1.3107805812
 C         -1.1183269293        1.7034222147       -0.3767825209
 H         -0.4787462199        1.1717106991        0.3053074303
 N          0.8461830744        2.6772882045       -1.3681814299
 S          1.8513425767        1.3269796239       -1.2754924506
 O          2.8005498119        1.4974866405       -2.3588901103
 O          1.0972657931        0.0979066897       -1.2852599354
 C          2.7190071029        1.5727495470        0.2616056531
 C          3.8812024582        2.3207646709        0.2181234805
 C          4.5755581404        2.5599983599        1.3919468839
 C          4.0985851432        2.0500999237        2.5902597176
 C          2.9326005187        1.3021013643        2.6177428429
 C          2.2312097919        1.0598825830        1.4458077890
 H          1.3221649073        0.4793697182        1.4586323361
 H          2.5540379288        0.9027126465        3.5452561677
 H          4.6374826365        2.2345309929        3.5062931613
 H          5.4834148513        3.1410435859        1.3695010784
 H          4.2223300370        2.6857548104       -0.7365586578
 H          1.1716511686        3.2959687500       -2.0971729259
 H         -0.9320094235        3.9375257211       -2.9055829779
 H         -3.3777247213        3.6497029876       -2.7884556078
 H         -4.3625626222        2.0238252680       -1.2220721728
 H         -4.0673313849        0.1770837479        0.2030039640
 C         -3.1773215068        0.9444222573        1.9841641688
 C         -4.3556572029        1.7945514654        2.3494876497
 C         -4.2445831526        0.3979738235        2.8817918413
 H         -4.0136577340        0.2562320475        3.9265838808
 H         -4.9009168504       -0.3574056354        2.4740628726
 H         -4.2029478974        2.6177822446        3.0301048269
 H         -5.0935869869        1.9866270811        1.5854028190
 H         -2.2239108850        1.1834745995        2.4349808431
