  62
        -98.94066062
 C         -1.9350829474       -0.8476169379        0.7195411181
 C         -1.8873421942       -0.1914217103       -0.5358161944
 C         -2.1539135111        1.2528903652       -0.5107965225
 C         -2.3334168455        1.8841942132        0.6619543685
 C         -2.5800930434        3.3567641914        0.8498725350
 C         -4.0474967520        3.7728557709        0.6755342053
 C         -4.5634544788        3.7559237466       -0.7639637755
 H         -5.5247018422        4.2734704885       -0.7649601069
 H         -3.8842818767        4.3269303177       -1.3976177699
 C         -4.7587921081        2.3510473160       -1.3508918116
 H         -4.7793811319        1.6179179194       -0.5412419449
 H         -5.7258617518        2.2981688915       -1.8557326154
 C         -3.6941901043        1.9350126788       -2.3661356815
 H         -3.7492116624        2.5844590507       -3.2424447870
 H         -3.9090846367        0.9134581320       -2.6897200080
 C         -2.2591831974        1.9680294032       -1.8235534894
 H         -1.9155423629        2.9974384467       -1.7226343475
 H         -1.6059969622        1.4515074852       -2.5312913060
 H         -4.1443078246        4.7900047679        1.0620312752
 H         -4.6695591647        3.1216261718        1.2939321757
 H         -2.2716835768        3.5941571189        1.8705357439
 H         -1.9525935723        3.9212459113        0.1592526145
 O         -2.2899174186        1.2323305916        1.8558539451
 C         -2.0970372064       -0.1385565344        1.9110544908
 O         -2.0855528291       -0.6040835442        3.0701201992
 O         -1.6462161835       -0.7685359855       -1.6273018189
 C         -1.6622011480       -2.3374855804        0.8488248529
 C         -0.4311268316       -2.6771563119        0.0445071080
 C         -0.3824509041       -3.6562182203       -0.9379159814
 C          0.7835048410       -3.8661496059       -1.6543405656
 C          1.9107691700       -3.1022335735       -1.4180289377
 C          1.8746674686       -2.1275033945       -0.4260570465
 C          0.7173856048       -1.9402401080        0.3082698886
 H          0.6948716980       -1.1764475892        1.0739676832
 N          3.0087744025       -1.3444146785       -0.1426366649
 S          2.7775512789        0.2415633047        0.3875642851
 O          2.5106881743        0.2202972619        1.8055394593
 O          1.8078654070        0.9242990927       -0.4391471714
 C          4.4101214580        0.9015518468        0.1020970925
 C          5.4086581733        0.6113528686        1.0128090186
 C          6.6877311919        1.0910712021        0.7800865771
 C          6.9460936596        1.8483948852       -0.3530072946
 C          5.9335982254        2.1334587889       -1.2566275433
 C          4.6522401285        1.6549886690       -1.0307410263
 H          3.8313636851        1.8558196756       -1.7005678819
 H          6.1360310066        2.7252499565       -2.1347045615
 H          7.9422417202        2.2211270936       -0.5315693188
 H          7.4765073966        0.8735647152        1.4819241146
 H          5.1567165341        0.0275864211        1.8827183006
 H          3.7043196282       -1.3881557279       -0.8754087476
 H          2.8099775043       -3.2512134947       -1.9962874102
 H          0.8071921182       -4.6234245693       -2.4233811182
 H         -1.2636954032       -4.2330412799       -1.1655376795
 H         -1.4159178364       -2.4871155807        1.9140065846
 C         -2.8575891111       -3.2291549543        0.5497571225
 C         -4.2574703606       -2.7223438714        0.7251796975
 C         -3.7350708988       -3.0205384060       -0.6463081871
 H         -4.1161900008       -3.8918772318       -1.1586409801
 H         -3.4966286908       -2.1970261606       -1.2998225104
 H         -4.9930757003       -3.3856644894        1.1548682653
 H         -4.3797330097       -1.6882672202        1.0145031250
 H         -2.6802855349       -4.2568087497        0.8519774546
