  62
        -98.94314207
 C          1.7761108001        1.3968495002       -0.0492025304
 C          3.0864911500        1.1933680105        0.4608443797
 C          3.8584482004        0.0942221807       -0.1321463602
 C          3.2943441907       -0.6601979094       -1.0921207903
 C          3.9371178411       -1.8531709792       -1.7366359103
 C          3.5897715713       -3.1461607893       -0.9853752504
 C          3.7943382411       -3.0560606093        0.5268480196
 H          3.0840599909       -2.3373486595        0.9420974396
 H          3.5460213913       -4.0327341094        0.9474843195
 C          5.2169486510       -2.6650686090        0.9512959498
 H          5.5307499310       -3.3179962489        1.7684924398
 H          5.9089902311       -2.8278172488        0.1240835299
 C          5.3580124705       -1.2267080790        1.4531591499
 H          6.3390579604       -1.1260962187        1.9251787400
 H          4.6050493304       -1.0305069292        2.2207018498
 C          5.2516035204       -0.1324053589        0.3833549999
 H          5.5603645701        0.8112419411        0.8427618200
 H          5.9356998005       -0.3532801787       -0.4387309000
 H          2.5416703014       -3.3874545496       -1.1755519006
 H          4.2021493516       -3.9542055691       -1.3896815904
 H          3.5724625612       -1.9293705192       -2.7625393604
 H          5.0159495211       -1.7108210289       -1.7559928902
 O          2.0393667107       -0.4424819997       -1.5537183805
 C          1.2450438904        0.5835370301       -1.0524456005
 O          0.1260759804        0.6444840799       -1.5931460607
 H         -1.4650623901        2.4937746194       -0.6673785808
 C         -1.4981795401        1.9665797094        0.2729673092
 C         -0.3615365102        1.9000168396        1.0623726193
 C         -0.4191067602        1.1927418695        2.2595504793
 C         -1.5893804601        0.5740364692        2.6589190291
 C         -2.7163485300        0.6206299290        1.8567571990
 C         -2.6591854800        1.3049524191        0.6496463590
 N         -3.7751328799        1.3028149388       -0.2035855111
 S         -4.6309776295       -0.1243541414       -0.3645252513
 O         -5.1821066494       -0.0895211915       -1.7021590114
 O         -5.6027698896       -0.2161488517        0.6994948086
 C         -3.4684668092       -1.4738445011       -0.2077033712
 C         -2.2565228691       -1.4203638308       -0.8660673811
 C         -1.3810345389       -2.4874578806       -0.7391694810
 C         -1.7296981787       -3.5883160207        0.0267085489
 C         -2.9551156088       -3.6301801210        0.6740678187
 C         -3.8317334090       -2.5638320212        0.5591907987
 H         -4.7883629991       -2.5492118715        1.0562053086
 H         -3.2269261486       -4.4864825311        1.2701091287
 H         -1.0426401885       -4.4146484905        0.1208798690
 H         -0.4257209488       -2.4354955803       -1.2382718109
 H         -1.9725281293       -0.5571675907       -1.4467831210
 H         -3.5912078099        1.7154140989       -1.1066875011
 H         -3.6339494299        0.1328185987        2.1443844888
 H         -1.6233333501        0.0389075192        3.5955408291
 H          0.4697454498        1.1269483797        2.8715220294
 C          0.9464111597        2.4904670400        0.6046691095
 H          1.5274845595        2.7734347601        1.4967086696
 C          0.7729580995        3.7595822200       -0.2154994905
 C          1.9311756194        4.3302540103       -0.9770780103
 C          0.7449213397        3.7873107600       -1.7129730205
 H          0.0776408795        4.4883318899       -2.1938145505
 H          0.8494031700        2.8548320601       -2.2439922605
 H          2.0869489192        5.3983459003       -0.9615602002
 H          2.8451575696        3.7542253405       -0.9904116302
 H          0.1295866192        4.4736714698        0.2904254895
 O          3.5872205198        1.9006005506        1.3750018498
