  62
        -98.93973297
 C          0.3980078305        1.9291043163        0.0336911539
 C          1.6232445321        1.9792311931        0.7406293727
 C          2.7204711642        1.1424668409        0.2306765655
 C          2.5038032585        0.3466628773       -0.8325957356
 C          3.4502881966       -0.5620455023       -1.5869565396
 C          4.7100275201       -1.1035202980       -0.9147918977
 C          4.4624157204       -1.9904751857        0.3035779974
 H          3.9480128653       -2.9002761579       -0.0170677994
 H          5.4342294874       -2.2846627045        0.7073236514
 C          3.6376108152       -1.3622133604        1.4257311300
 H          2.5980629830       -1.2390681870        1.1110161685
 H          3.6211263553       -2.0667735706        2.2627080609
 C          4.1591697144       -0.0260093901        1.9548226415
 H          3.5951711722        0.2002493251        2.8637887808
 H          5.2113110341       -0.1253069435        2.2295616203
 C          4.0053548059        1.1779582029        1.0049754830
 H          3.9754799917        2.0858859225        1.6143498893
 H          4.8542669487        1.2640683984        0.3298717061
 H          5.3811974935       -0.2914159505       -0.6512265118
 H          5.2246176627       -1.7104383249       -1.6649171583
 H          2.8382380712       -1.4030422740       -1.9231885945
 H          3.7498088080       -0.0122718675       -2.4862839247
 O          1.2966882075        0.3048881754       -1.4634955028
 C          0.2130966167        1.0612064509       -1.0426030671
 O         -0.8231463212        0.8640032946       -1.7025904458
 H         -0.8516673302        0.2545354453        1.4954771219
 C         -1.8328587112        0.5923134727        1.1960732350
 C         -1.9942017001        1.8745686536        0.6859199853
 C         -3.2706120050        2.2841233763        0.3227530376
 C         -4.3477758986        1.4250065336        0.4601604228
 C         -4.1745782622        0.1371097018        0.9314336122
 C         -2.8985591764       -0.2843145828        1.2904025246
 N         -2.6652806462       -1.5938859083        1.7470374671
 S         -1.3104933147       -2.4273932670        1.2478455586
 O         -1.5953389597       -3.8038529052        1.6042584030
 O         -0.1217103777       -1.8711537236        1.8458062898
 C         -1.2011804488       -2.3278114255       -0.5312459374
 C          0.0361026024       -2.5690057941       -1.0925295255
 C          0.1584502806       -2.5895228270       -2.4714629734
 C         -0.9533073800       -2.3595489236       -3.2649548103
 C         -2.1880387973       -2.1178169781       -2.6874041767
 C         -2.3196582627       -2.1111332761       -1.3082957811
 H         -3.2749504935       -1.9206421945       -0.8480758015
 H         -3.0507668946       -1.9282741602       -3.3054418442
 H         -0.8535565199       -2.3620062118       -4.3390145007
 H          1.1190847019       -2.7782503086       -2.9247663217
 H          0.8785607240       -2.7237463384       -0.4354462768
 H         -3.4764132876       -2.1953141179        1.7581025179
 H         -5.0124296807       -0.5383946171        1.0180620871
 H         -5.3347142840        1.7583176441        0.1776696856
 H         -3.4249383615        3.2704201162       -0.0823192577
 C         -0.7647280130        2.7425024794        0.5714603344
 H         -0.4531841087        3.0154444445        1.5947844024
 C         -1.0140618536        4.0496052604       -0.1685080858
 C          0.0313077957        4.6546803498       -1.0558761504
 C         -1.2199392080        4.0875523312       -1.6523578810
 H         -1.9518778471        4.7737393935       -2.0525285044
 H         -1.1567996387        3.1503351452       -2.1822854482
 H          0.1571874623        5.7270745119       -1.0383630859
 H          0.9544605523        4.1090627956       -1.1887787449
 H         -1.5950606466        4.7505843743        0.4227474705
 O          1.7971393165        2.7014377486        1.7602911425
