  62
        -98.93253913
 C         -2.4628446469       -0.8948343288        0.0052198507
 C         -2.8579414430        0.2038425556        0.8077257743
 C         -3.9860220377        1.0192943471        0.3273273186
 C         -4.5840714970        0.6914389996       -0.8330351840
 C         -5.7168547222        1.3476992647       -1.5947176710
 C         -6.5817882960        2.4192779990       -0.9367345353
 C         -7.4804974974        1.9102980403        0.1900102571
 H         -7.9655247794        2.7704386962        0.6565931702
 H         -8.2626277812        1.2840498297       -0.2466388151
 C         -6.7824834096        1.0871672059        1.2696990035
 H         -7.5397465785        0.7748730533        1.9940465847
 H         -6.3670598261        0.1791811560        0.8277781702
 C         -5.6797515410        1.8146310357        2.0360573099
 H         -5.3772093837        1.1716705860        2.8671360008
 H         -6.0745512848        2.7411670203        2.4575355849
 C         -4.4161528024        2.1449785990        1.2235173385
 H         -4.5411053392        3.0631662818        0.6545536543
 H         -3.5945157422        2.3051574010        1.9277313114
 H         -5.9627576964        3.2416302801       -0.5905191012
 H         -7.2309387435        2.8200518873       -1.7200260174
 H         -5.2584533032        1.7757766340       -2.4930129207
 H         -6.3587426130        0.5301121472       -1.9381405563
 O         -4.1647894585       -0.3717563737       -1.5772332344
 C         -3.1067304643       -1.1864380159       -1.1964486684
 O         -2.8685534296       -2.1014274223       -2.0043981908
 H          0.8695690148       -0.9600481708        1.9231495522
 C          1.0249085757       -0.8484582114        0.8584378078
 C          0.0048802078       -1.1898852210       -0.0166842790
 C          0.2123130461       -1.0214249462       -1.3825049165
 C          1.4164792565       -0.5285839936       -1.8506237361
 C          2.4305907333       -0.1842114144       -0.9732933682
 C          2.2325647970       -0.3427680827        0.3913676150
 N          3.2412756841        0.0317720180        1.2901036590
 S          4.8348595616       -0.3805352376        0.9772376440
 O          4.9252048965       -1.6160889961        0.2349477635
 O          5.4854422743       -0.3574391309        2.2686852250
 C          5.4441121307        0.9725250566       -0.0063427581
 C          6.0934624925        0.7176822668       -1.1983084862
 C          6.5710880560        1.7849859807       -1.9429657355
 C          6.3924297776        3.0810489535       -1.4843818194
 C          5.7404516069        3.3198921678       -0.2836616650
 C          5.2621343589        2.2574334800        0.4662797246
 H          4.7518703842        2.4021894145        1.4039417000
 H          5.6025442421        4.3292673451        0.0692430612
 H          6.7630549035        3.9101225988       -2.0662911288
 H          7.0784410814        1.6014333720       -2.8764475002
 H          6.2036586499       -0.3059859250       -1.5193753039
 H          3.0051848280       -0.1018864976        2.2622302769
 H          3.3683499127        0.2023732054       -1.3371836485
 H          1.5668824549       -0.4064023749       -2.9126537255
 H         -0.5792733180       -1.2837141454       -2.0684105008
 C         -1.2994946055       -1.7250693714        0.5168007828
 H         -1.2996209798       -1.5599400776        1.6061991983
 C         -1.4739922427       -3.2199435645        0.2903815414
 C         -0.6405239669       -4.0270038526       -0.6543643115
 C         -0.4512286706       -4.1801469715        0.8230783583
 H         -0.7885775223       -5.0870246481        1.3016028345
 H          0.4466138260       -3.7610855955        1.2534886059
 H          0.1325253857       -3.5266585019       -1.2155676778
 H         -1.1325979246       -4.8156081667       -1.2026762766
 H         -2.5126862320       -3.5210403337        0.3819276829
 O         -2.2849088451        0.4942930743        1.8929535935
