  62
        -98.93817426
 C         -1.9437756152       -0.8577922491        0.2920519782
 C         -2.2775441724        0.3307239058       -0.3974543257
 C         -3.6006696215        0.9121512753       -0.0974969453
 C         -4.3893250292        0.3206528305        0.8155409036
 C         -5.7766039522        0.7243599795        1.2315986867
 C         -6.8331071815       -0.0391458864        0.4151365129
 C         -7.2177803720        0.6149702413       -0.9113291528
 H         -7.8050305583        1.5136684002       -0.7110434614
 H         -7.8641298740       -0.0862038438       -1.4442659389
 C         -6.0443891398        0.9902703422       -1.8201784329
 H         -6.4274032463        1.0880741908       -2.8378709599
 H         -5.3112176160        0.1817787602       -1.8272276212
 C         -5.3659900847        2.3079934929       -1.4166856859
 H         -5.9980627483        2.8280617993       -0.6970756505
 H         -5.2933545432        2.9591386561       -2.2904143057
 C         -3.9450456014        2.1688913862       -0.8498849739
 H         -3.7310035537        3.0297126025       -0.2073059876
 H         -3.2216025828        2.2075145351       -1.6703838456
 H         -7.7378955778       -0.1380710344        1.0182308695
 H         -6.4507066024       -1.0466200581        0.2322275094
 H         -5.8795043710        0.4437306913        2.2819520712
 H         -5.9097051971        1.7983614874        1.1419568749
 O         -4.0205197077       -0.8119221366        1.4742040157
 C         -2.8074691154       -1.4246417218        1.2342970084
 O         -2.6114486429       -2.4556324583        1.9076523910
 H          0.8023007679        0.5723811408       -0.8127757374
 C          1.1065520389        0.2719745697        0.1776655828
 C          0.4749443109       -0.7996373491        0.7917798354
 C          0.8558362648       -1.1458288564        2.0839619246
 C          1.8437439309       -0.4367640866        2.7436510408
 C          2.4706728553        0.6325918289        2.1288341075
 C          2.0898583026        0.9907205988        0.8425467372
 N          2.7307257035        2.0752694918        0.2077766679
 S          4.3905311376        1.9275942788        0.0284794419
 O          5.0306945005        2.1900298073        1.2928517188
 O          4.7471417055        2.8090677732       -1.0602421952
 C          4.6278613776        0.2218505446       -0.4349942450
 C          4.3129577333       -0.1510173342       -1.7266239346
 C          4.4107761438       -1.4861811684       -2.0813625367
 C          4.8078562820       -2.4229667058       -1.1395258330
 C          5.1208387742       -2.0323145193        0.1529139910
 C          5.0297171124       -0.6971630521        0.5126628611
 H          5.2668837748       -0.3519203401        1.5053408468
 H          5.4309429948       -2.7627551836        0.8827045268
 H          4.8748419584       -3.4632771831       -1.4163522272
 H          4.1744810163       -1.7923003610       -3.0878919996
 H          4.0111683762        0.6067753807       -2.4319734834
 H          2.3038900545        2.3191419395       -0.6748704154
 H          3.2457737448        1.1959454287        2.6231033929
 H          2.1285024745       -0.7185639425        3.7459743390
 H          0.3581428980       -1.9722121176        2.5714169532
 C         -0.6163421070       -1.5744857943        0.0935493078
 H         -0.7228369221       -2.5375566442        0.6096159656
 C         -0.3003764582       -1.8400792192       -1.3649946758
 C          0.8177285024       -2.7787785871       -1.7020558052
 C         -0.6033081679       -3.1857891397       -1.9485509745
 H         -0.9577019408       -3.2367616115       -2.9672921107
 H         -1.0437834269       -3.9266416520       -1.2972010924
 H          1.3442754935       -3.2401746944       -0.8805045806
 H          1.4424552230       -2.5507882979       -2.5514458949
 H         -0.4490342803       -0.9807904444       -2.0052564949
 O         -1.5269499618        0.8933764036       -1.2390599655
