  62
        -98.93537262
 C          0.9739429672        1.8115130215        0.3306294685
 C          1.6057858472        1.4002290816       -0.8684374615
 C          2.7461845784        0.4798426031       -0.7131885915
 C          3.1211781093        0.0943409842        0.5196857986
 C          4.2026771907       -0.9014747243        0.8287639587
 C          3.6861170823       -2.3314493751        0.5729508797
 C          4.3991720827       -3.0677071848       -0.5610033502
 H          5.3846977232       -3.3868721934       -0.2156938704
 H          3.8205934537       -3.9671430156       -0.7824933695
 C          4.5918253512       -2.2695621353       -1.8540523107
 H          5.4466678404       -1.5997139042       -1.7493464414
 H          4.8531201918       -2.9864188654       -2.6354546504
 C          3.3822497200       -1.4503706370       -2.3231007807
 H          2.4560705207       -1.8750555879       -1.9340121201
 H          3.3288590697       -1.5184604477       -3.4118428906
 C          3.4472357984        0.0482497133       -1.9718793515
 H          4.4921544480        0.3688662145       -1.9364071421
 H          2.9584971473        0.6140746322       -2.7710817316
 H          3.7908034734       -2.9238022244        1.4829049300
 H          2.6183673221       -2.2721049165        0.3528691101
 H          5.0783273502       -0.6945381536        0.2174288382
 H          4.4722034809       -0.7751300034        1.8773063285
 O          2.4952660993        0.5176945941        1.6471202186
 C          1.4177870882        1.3843637628        1.5835190486
 O          0.9479690083        1.7016824128        2.6937895386
 H         -0.5912417114        0.2653904290       -0.8100084600
 C         -1.5142513520        0.8166604679       -0.6968603099
 C         -1.4949123734        2.0918757083       -0.1552259306
 C         -2.7058316441        2.7672984869       -0.0249868805
 C         -3.8948165536        2.1799666952       -0.4165206197
 C         -3.9072076123        0.9033890949       -0.9527119689
 C         -2.7062135215        0.2277045163       -1.0987997591
 N         -2.7188371401       -1.0906972040       -1.6194424783
 S         -3.1543604582       -2.2591130839       -0.4995525175
 O         -3.0790364470       -3.5269556042       -1.1878540769
 O         -4.4342851884       -1.8990628352        0.0523189228
 C         -1.8888935178       -2.1771359017        0.7552820719
 C         -1.9269960587       -1.1493801413        1.6774945314
 C         -0.8852011285       -1.0241749595        2.5833264309
 C          0.1632211526       -1.9308458282        2.5590661409
 C          0.1772423435       -2.9687492487        1.6395680515
 C         -0.8502645267       -3.0860008605        0.7174707420
 H         -0.8735076061       -3.8699543709       -0.0227976076
 H          0.9864236744       -3.6816590277        1.6365991515
 H          0.9755164228       -1.8170963569        3.2598682605
 H         -0.8766794692       -0.2071435291        3.2873344204
 H         -2.7641685795       -0.4699778623        1.6779812113
 H         -1.8376922800       -1.3548066832       -2.0391613986
 H         -4.8235380018        0.4169672736       -1.2435870283
 H         -4.8230360742        2.7179054941       -0.3003864196
 H         -2.7113029552        3.7603486971        0.3960778890
 C         -0.2182611440        2.7451350301        0.3272048185
 H         -0.3751543739        3.0290759505        1.3780553684
 C          0.0632367142        4.0081831800       -0.4705404423
 C         -0.4085969172        5.3421194497        0.0206478872
 C          1.0496506932        5.0009530615        0.0650622568
 H          1.7223467823        5.4849164819       -0.6266739038
 H          1.4930756538        4.7876845225        1.0273681167
 H         -0.7456185584        6.0669035789       -0.7046062031
 H         -0.9366022869        5.3796651096        0.9617266974
 H          0.0697029239        3.8352432594       -1.5397114422
 O          1.2395293563        1.7636313106       -2.0175744815
