  62
        -98.94633555
 C         -1.7828191761       -0.7472923438        0.2129884241
 C         -3.0730977958       -0.9840245228        0.7445380396
 C         -3.9902399438        0.1632618698        0.7378085344
 C         -3.5608554360        1.3457342800        0.2597631284
 C         -4.4072105512        2.5792232407        0.1403083106
 C         -5.0934213300        2.6501631119       -1.2311523341
 C         -5.8054986195        1.3585673052       -1.6333644992
 H         -6.2776356191        1.5355538121       -2.6022203879
 H         -5.0619976193        0.5712935967       -1.7783378146
 C         -6.8628336570        0.8775952560       -0.6297347760
 H         -7.7587221266        0.5817880609       -1.1796780554
 H         -7.1453636837        1.6969538203        0.0322653677
 C         -6.4375963387       -0.3284067811        0.2099329898
 H         -7.3228598479       -0.7161089630        0.7210777254
 H         -6.0669762100       -1.1195339750       -0.4468959071
 C         -5.3745586341       -0.0537762774        1.2810454860
 H         -5.6841904232        0.7920790729        1.8981677019
 H         -5.3102658398       -0.9399383931        1.9193588974
 H         -4.3361402046        2.8723608543       -1.9865728971
 H         -5.8103131548        3.4731175016       -1.2163812884
 H         -5.1539223520        2.5798409988        0.9319042000
 H         -3.7629787581        3.4518278137        0.2594758661
 O         -2.3055524670        1.5411972200       -0.2182924659
 C         -1.3881357581        0.5018137365       -0.2638931060
 O         -0.2799484203        0.8164994194       -0.7359853464
 H          1.8702841410       -1.9133266980       -0.6407752786
 C          1.7264142566       -1.6072339905        0.3813630088
 C          0.4571437203       -1.5365312663        0.9324174079
 C          0.3281716230       -1.1319882535        2.2597826659
 C          1.4382778036       -0.7970285714        3.0092940120
 C          2.7033226673       -0.8500900642        2.4487223724
 C          2.8441132881       -1.2568906256        1.1286407446
 N          4.1183135989       -1.3468194806        0.5352479603
 S          4.4421356208       -0.4742455871       -0.8573226247
 O          3.5574329655       -0.8878585994       -1.9141728575
 O          5.8559947999       -0.6749318430       -1.0919741138
 C          4.1553642732        1.2259904566       -0.3995615573
 C          5.2429303568        1.9995183995       -0.0397173647
 C          5.0331291735        3.3034215799        0.3770758504
 C          3.7422847184        3.8075376877        0.4366685839
 C          2.6629532507        3.0160055746        0.0771094088
 C          2.8639890461        1.7104383599       -0.3457428858
 H          2.0299264842        1.0880286095       -0.6296867084
 H          1.6543544148        3.3959148800        0.1201116597
 H          3.5755091205        4.8219573331        0.7635544859
 H          5.8723590387        3.9204684825        0.6551889109
 H          6.2281340496        1.5666664640       -0.1062678553
 H          4.8784559140       -1.2164920603        1.1886943716
 H          3.5732053174       -0.5836979661        3.0298607523
 H          1.3199482842       -0.4862135685        4.0363009957
 H         -0.6611376748       -1.0843452353        2.6945424758
 C         -0.7883715572       -1.8928067738        0.1603243468
 H         -1.2815706590       -2.7312118714        0.6747502922
 C         -0.5218045956       -2.2952885343       -1.2746716913
 C         -0.1048000573       -3.6979057750       -1.5972457249
 C         -1.4786617366       -3.2220304648       -1.9601349998
 H         -1.7084721818       -3.0494481405       -3.0009981493
 H         -2.3155894288       -3.5865733611       -1.3822412621
 H         -0.0092321497       -4.3920096121       -0.7759317274
 H          0.6141396226       -3.8501851914       -2.3883639224
 H         -0.0971196252       -1.4913092644       -1.8666293601
 O         -3.4370489281       -2.0987591589        1.2067284064
