  62
        -98.94213398
 C         -1.3966065220       -1.2339160555       -0.0306611789
 C         -2.4771796365       -0.8501243604        0.7948304642
 C         -3.0939033548        0.4460503749        0.4873675345
 C         -2.5951281246        1.2000205966       -0.5091125974
 C         -3.0604594194        2.5734642682       -0.9159929174
 C         -4.4904672521        2.6731796629       -1.4818540290
 C         -5.5595605349        3.0283005731       -0.4411304516
 H         -5.0806179106        3.5503875874        0.3882432430
 H         -6.2653162677        3.7311565306       -0.8884652461
 C         -6.3803633395        1.8535119522        0.0993299705
 H         -6.9098159412        2.1977797809        0.9902987492
 H         -7.1317569202        1.5725651557       -0.6420174845
 C         -5.5897578153        0.5929353710        0.4497956095
 H         -5.3078367351        0.0689402841       -0.4664813334
 H         -6.2489074467       -0.0808313591        1.0007698639
 C         -4.3105494566        0.8430780495        1.2722294065
 H         -4.2446021194        1.8863191561        1.5786225882
 H         -4.3171376097        0.2220365445        2.1705647928
 H         -4.4759636722        3.4607076828       -2.2369262605
 H         -4.7456116813        1.7431987565       -1.9891133892
 H         -2.9590364877        3.2414792135       -0.0572163973
 H         -2.3500755111        2.9054801779       -1.6760648457
 O         -1.5405570598        0.8015932910       -1.2699428912
 C         -0.9137504829       -0.4117277910       -1.0477077412
 O          0.0419139634       -0.6462880853       -1.8133959778
 H          0.4328080540       -0.5404663373        1.5799693791
 C          1.1737984411       -1.2258347481        1.1943634630
 C          0.7762192255       -2.3366667247        0.4611894617
 C          1.7565821345       -3.2008785181       -0.0116163826
 C          3.0960766546       -2.9421066377        0.2231914180
 C          3.4877116806       -1.8086524496        0.9117180965
 C          2.5141107327       -0.9436563081        1.3964348725
 N          2.8539256512        0.2462430381        2.0781420475
 S          2.4797809017        1.6716303397        1.2736683247
 O          3.0103168072        2.7268319381        2.1114041416
 O          1.0676661076        1.7259629768        0.9982663316
 C          3.4388053878        1.5705113242       -0.2273663158
 C          2.9647663570        0.8296639717       -1.2913072337
 C          3.7726751292        0.6835782319       -2.4096073197
 C          5.0275799964        1.2709457906       -2.4445293158
 C          5.4869391035        2.0133269819       -1.3666224405
 C          4.6891423838        2.1599900373       -0.2441053018
 H          5.0012664999        2.7286029985        0.6171676795
 H          6.4618881978        2.4726183877       -1.3960644869
 H          5.6495394572        1.1497880700       -3.3174180399
 H          3.4074223155        0.1052252956       -3.2430757152
 H          1.9822341194        0.3842957575       -1.2494817216
 H          3.8236262358        0.2822243002        2.3643180084
 H          4.5329461479       -1.5908357725        1.0720352770
 H          3.8450451512       -3.6224352596       -0.1519781926
 H          1.4706971941       -4.0770024831       -0.5704444606
 C         -0.6981996393       -2.5555279854        0.2271900237
 H         -1.1424763121       -2.9462480764        1.1554597744
 C         -0.9870024404       -3.5287977365       -0.8983951809
 C         -1.0909819979       -4.9992632895       -0.6268383961
 C         -2.3229949026       -4.2061994387       -0.9395665335
 H         -2.8013749730       -4.3464670880       -1.8972708551
 H         -3.0114135043       -3.9873695948       -0.1362288107
 H         -0.7259121462       -5.6885565928       -1.3732483876
 H         -0.9499190379       -5.3315989976        0.3904805131
 H         -0.5594094981       -3.2081615111       -1.8419852097
 O         -2.9002187412       -1.5544791726        1.7529717945
