  62
        -98.94066650
 C         -1.9578009107       -0.8511189474        0.7149130928
 C         -1.8653893785       -0.1845801730       -0.5327141468
 C         -2.0656854986        1.2699052696       -0.4955821119
 C         -2.2383390817        1.8960271196        0.6809534340
 C         -2.4132038928        3.3771443500        0.8823748758
 C         -3.8520743566        3.8726667937        0.6806073601
 C         -4.3345373510        3.8999626447       -0.7702630884
 H         -5.2664372705        4.4683948661       -0.7866793992
 H         -3.6110316771        4.4406373985       -1.3810180457
 C         -4.5907230047        2.5142077971       -1.3787873340
 H         -4.6678170997        1.7741863948       -0.5789127589
 H         -5.5476980025        2.5183520482       -1.9051091791
 C         -3.5269229967        2.0538354083       -2.3755219843
 H         -3.5276936872        2.7152824455       -3.2445702895
 H         -3.7879303907        1.0488658853       -2.7165706317
 C         -2.1049737511        2.0047076512       -1.8009738924
 H         -1.4631587292        1.4629563879       -2.5001849432
 H         -1.7097949447        3.0131803940       -1.6791560506
 H         -4.5218177478        3.2482924037        1.2764635280
 H         -3.9037861370        4.8889405275        1.0779262098
 H         -2.1161613747        3.5858396150        1.9126708314
 H         -1.7408366055        3.9156425564        0.2134867499
 O         -2.2525603475        1.2293485772        1.8673991593
 C         -2.1138213230       -0.1484011918        1.9108760552
 O         -2.1430630246       -0.6261413337        3.0647928036
 O         -1.6353487238       -0.7608069189       -1.6270474817
 C         -1.7282878663       -2.3494694549        0.8339854294
 C         -0.4889026089       -2.7089524236        0.0508664280
 C         -0.4364327743       -3.6910215554       -0.9283252762
 C          0.7371196055       -3.9140690091       -1.6284152456
 C          1.8677369648       -3.1585188965       -1.3811134201
 C          1.8276573113       -2.1813241487       -0.3918430418
 C          0.6639234566       -1.9844147876        0.3294239625
 H          0.6399583355       -1.2196456371        1.0941367810
 N          2.9607745161       -1.4003519565       -0.0985503632
 S          2.7185623940        0.1948460889        0.4009852026
 O          2.4484696961        0.1983990467        1.8186045875
 O          1.7465080552        0.8550329946       -0.4406043466
 C          4.3463501060        0.8625543356        0.1055705126
 C          5.3369030725        0.6374190334        1.0428314664
 C          6.6115207047        1.1244826151        0.8006063306
 C          6.8735030915        1.8237122197       -0.3683604530
 C          5.8689591275        2.0436849369       -1.2987347667
 C          4.5921974267        1.5578972016       -1.0632165832
 H          3.7771284277        1.7104452402       -1.7526232908
 H          6.0740417479        2.5905989165       -2.2048593555
 H          7.8660962760        2.2023260669       -0.5541760317
 H          7.3939917261        0.9578279126        1.5231175491
 H          5.0821000586        0.0972972207        1.9397106869
 H          3.6683410147       -1.4558427035       -0.8189237392
 H          2.7720642027       -3.3155840678       -1.9491781718
 H          0.7638533620       -4.6738139889       -2.3949268395
 H         -1.3199982913       -4.2600052018       -1.1665028763
 H         -1.5078589958       -2.5158665113        1.9023625712
 C         -2.9380032577       -3.2090652870        0.5009408245
 C         -4.3285036587       -2.6639993470        0.6300980622
 C         -3.7712473554       -2.9818511430       -0.7231114644
 H         -4.1593903761       -3.8447581627       -1.2444077945
 H         -3.4893370705       -2.1676863929       -1.3709965163
 H         -5.0949141055       -3.3054271199        1.0387296378
 H         -4.4318592739       -1.6256495344        0.9112890237
 H         -2.7986134389       -4.2400176228        0.8117804762
