  62
        -98.94923712
 C         -1.6216584945       -1.2915633350       -0.1432348889
 C         -2.4749613099       -0.5666312773        0.7216848375
 C         -2.9338630606        0.7356458365        0.2243165535
 C         -2.5435337222        1.1607604786       -0.9909083844
 C         -2.9325592098        2.4598804028       -1.6426499743
 C         -2.0845542997        3.6594294663       -1.1974195724
 C         -2.3774012501        4.1777336041        0.2112968314
 H         -1.8906016378        5.1509436876        0.3011902448
 H         -3.4502643533        4.3381786846        0.3250639509
 C         -1.8702365420        3.2748715602        1.3442911227
 H         -1.3818103718        3.8857266600        2.1076782390
 H         -1.1039450389        2.5925410530        0.9685684957
 C         -2.9545385426        2.4606091937        2.0506176253
 H         -3.6280676262        3.1340721155        2.5865153166
 H         -2.4637960799        1.8185787086        2.7872340210
 C         -3.7932088362        1.5715100856        1.1238006606
 H         -4.3807184305        0.8910006516        1.7457880127
 H         -4.4762370087        2.1840595589        0.5349483773
 H         -2.2733917511        4.4711459627       -1.9037615918
 H         -1.0271737626        3.3936725246       -1.2704882901
 H         -3.9855208744        2.6668102455       -1.4492030527
 H         -2.7980624032        2.3214960391       -2.7174849752
 O         -1.7371626340        0.4246572566       -1.8008435396
 C         -1.2350123723       -0.8049371260       -1.3909856637
 O         -0.4790762581       -1.3499076832       -2.2156570488
 O         -2.8407233062       -0.9905035632        1.8517892751
 C         -1.0792155263       -2.6353586092        0.3050126272
 C          0.4292262307       -2.6007616824        0.3506899218
 C          1.2310009808       -3.5997589418       -0.1861794096
 C          2.6096693478       -3.5130508768       -0.1009044666
 C          3.2148683877       -2.4353588329        0.5176122944
 C          2.4221784992       -1.4349914654        1.0701287242
 C          1.0420888313       -1.5267221122        0.9860628077
 H          0.4351147537       -0.7472800445        1.4240265810
 N          3.0113793614       -0.3455877573        1.7366790692
 S          2.4942461204        1.2129631480        1.4302887533
 O          3.5172469708        2.0489931871        2.0210866944
 O          1.1545266553        1.4026436166        1.9216941742
 C          2.5382959364        1.3734578146       -0.3425465571
 C          1.3581129754        1.3238019875       -1.0521274269
 C          1.3974923775        1.3957720402       -2.4348659744
 C          2.6185103173        1.5110192309       -3.0802656986
 C          3.7990249699        1.5653881401       -2.3535946953
 C          3.7627239077        1.4936789043       -0.9709307715
 H          4.6563621737        1.5455007981       -0.3701611130
 H          4.7451892622        1.6593059390       -2.8619752843
 H          2.6473166682        1.5590753802       -4.1573824421
 H          0.4761560425        1.3378491489       -2.9925350406
 H          0.4301882226        1.2245448918       -0.5108835539
 H          4.0204334734       -0.3797749601        1.7669848557
 H          4.2901760319       -2.3678926390        0.5819086778
 H          3.2210048850       -4.2940227963       -0.5265582492
 H          0.7770550535       -4.4460171710       -0.6744275073
 H         -1.4463616074       -2.7702397138        1.3339252310
 C         -1.6373565667       -3.7461631845       -0.5603137923
 C         -1.8204495680       -5.1237453915        0.0009816874
 C         -3.0147559522       -4.2618974830       -0.2744316001
 H         -3.6545844444       -4.5134858214       -1.1069274674
 H         -3.5410466189       -3.8296439825        0.5643122049
 H         -1.6433211884       -5.9714263942       -0.6436202049
 H         -1.5401677021       -5.2853788882        1.0309138791
 H         -1.3467272807       -3.6486410668       -1.6002338027
