  62
        -98.93916933
 C         -2.2048699109       -1.2714987497       -0.0926073712
 C         -2.8911514809       -0.4017960795        0.7832147987
 C         -3.4272243209        0.8462098404        0.2081193686
 C         -3.2141404609        1.0979519902       -1.0970474115
 C         -3.6238501010        2.3114005301       -1.8881258016
 C         -2.7176993310        3.5232983101       -1.6163728118
 C         -2.3754211810        3.7538239303       -0.1465618519
 H         -1.8842701309        2.8619414704        0.2495561783
 H         -1.6410921110        4.5629484404       -0.0998287020
 C         -3.5535030910        4.1367500404        0.7467153681
 H         -3.1504005109        4.3418855706        1.7419510181
 H         -3.9976176410        5.0615418504        0.3716720080
 C         -4.6604608709        3.0897517204        0.8870622083
 H         -5.2928147909        3.0689909303        0.0038369383
 H         -5.2980294809        3.4022664905        1.7192435082
 C         -4.1720061909        1.6835413005        1.2203001685
 H         -5.0339819209        1.0791355105        1.5283248286
 H         -3.5239701709        1.7316456106        2.1033268884
 H         -3.1975908710        4.4140106801       -2.0255352119
 H         -1.7765230810        3.3677719601       -2.1498402918
 H         -3.5355258410        2.0425469299       -2.9429659316
 H         -4.6645137510        2.5516715001       -1.6919598017
 O         -2.5183474009        0.2435645301       -1.8991261814
 C         -1.9782835909       -0.9379645298       -1.4277122612
 O         -1.3457559109       -1.5909717499       -2.2786429611
 O         -3.0455453108       -0.6485849194        2.0124872488
 C         -1.6021398208       -2.5506361096        0.4650677590
 C         -0.1011132308       -2.4016133395        0.4437999890
 C          0.7595429392       -3.2388771696       -0.2521478709
 C          2.1206258692       -2.9827425696       -0.2734429510
 C          2.6500743992       -1.8917341595        0.3919912888
 C          1.7969834592       -1.0550501294        1.0996446487
 C          0.4397496292       -1.3191818794        1.1286935488
 H         -0.2227588208       -0.6572855994        1.6740315787
 N          2.3288847092        0.0883829407        1.7527018786
 S          2.5675625691        1.3774975906        0.6878899284
 O          2.6949850991        2.5518213407        1.5241766882
 O          1.5342974991        1.4241107104       -0.3238272916
 C          4.1390994391        0.9931766105       -0.0490442816
 C          5.2762096891        1.1393685106        0.7216022584
 C          6.5044036991        0.8149744806        0.1681831284
 C          6.5726825591        0.3515086804       -1.1374935315
 C          5.4212821391        0.2112997303       -1.8975652215
 C          4.1891169291        0.5341182503       -1.3502571715
 H          3.2662675291        0.4358282102       -1.9000632315
 H          5.4755399791       -0.1502672699       -2.9118238014
 H          7.5291574191        0.0976317803       -1.5664411115
 H          7.4021290491        0.9229636907        0.7551352984
 H          5.1739486891        1.5080792108        1.7285702683
 H          1.7274437792        0.4138340208        2.4986449185
 H          3.7077294192       -1.6850948695        0.3729252488
 H          2.7770192292       -3.6389425196       -0.8240104409
 H          0.3624769492       -4.0829447097       -0.7914044608
 H         -1.9266139308       -2.5917483694        1.5152554690
 C         -2.1175623908       -3.7753390797       -0.2566266508
 C         -2.0710692608       -5.1117780596        0.4202776594
 C         -3.3842544808       -4.4189782596        0.2191734293
 H         -4.0696990708       -4.8114546598       -0.5167321106
 H         -3.8713233008       -3.9830382295        1.0793193993
 H         -1.8564141608       -5.9849286597       -0.1765925005
 H         -1.6666929807       -5.1500446294        1.4203911694
 H         -1.9504596108       -3.7341752798       -1.3263840508
