  62
        -98.94591448
 C          1.2915556339        1.4227952808        0.6216407713
 C          2.3653810645        1.3153099540       -0.2965865608
 C          3.3629112101        0.2743700061        0.0002255518
 C          3.2131358702       -0.5009436763        1.0883676925
 C          4.1342200613       -1.6193626404        1.4813480905
 C          3.6953169338       -2.9613708786        0.8781703261
 C          3.3797520281       -2.8966584660       -0.6159929886
 H          3.1065097746       -3.9053665043       -0.9328004958
 H          2.5072675657       -2.2583033011       -0.7720273608
 C          4.5375792659       -2.3894801008       -1.4866565433
 H          5.4768470971       -2.4664157972       -0.9375638387
 H          4.6228310176       -3.0323083857       -2.3652476982
 C          4.3660324957       -0.9580649145       -1.9976591336
 H          3.3842191576       -0.8497591806       -2.4651527691
 H          5.1183585922       -0.7810635348       -2.7708704292
 C          4.5236971483        0.1470810201       -0.9459607720
 H          4.5841369464        1.1026202528       -1.4748426924
 H          5.4550831027        0.0010478051       -0.3949583606
 H          2.8025935298       -3.3055083567        1.4055260422
 H          4.4887888616       -3.6904297766        1.0526272353
 H          5.1435508757       -1.3775680462        1.1532028973
 H          4.1281018339       -1.7009016525        2.5698437492
 O          2.1703698398       -0.3682661029        1.9485566384
 C          1.1945955987        0.5918315863        1.7408612931
 O          0.3046898906        0.6082633537        2.6160995762
 O          2.5108879019        2.0452008001       -1.3107528642
 C          0.1709232131        2.4391758899        0.4556462843
 C         -0.7924180782        1.9639858802       -0.6063188200
 C         -0.5214086432        2.0947814616       -1.9644194964
 C         -1.4209027400        1.6253818929       -2.9040404850
 C         -2.5962567647        1.0083101546       -2.5134885781
 C         -2.8745933589        0.8680558672       -1.1590897100
 C         -1.9771376003        1.3529204019       -0.2177711559
 H         -2.2096933888        1.2469472543        0.8312955770
 N         -4.0635371812        0.2535235873       -0.7332562307
 S         -4.0352033055       -0.8163100372        0.5525377045
 O         -5.2578467601       -1.5767235538        0.4062229123
 O         -3.8824821520       -0.0995740482        1.7918638217
 C         -2.6317051104       -1.8693212845        0.2370393444
 C         -1.4547789276       -1.6952600346        0.9342701337
 C         -0.3704850232       -2.5013079738        0.6236233986
 C         -0.4776557793       -3.4591425082       -0.3714329024
 C         -1.6704112176       -3.6247930672       -1.0598545886
 C         -2.7570059072       -2.8220988632       -0.7564342498
 H         -3.7049695432       -2.9294874762       -1.2583679417
 H         -1.7529792619       -4.3743675918       -1.8302237391
 H          0.3721197165       -4.0801766708       -0.6073436791
 H          0.5518395741       -2.3634294656        1.1660252128
 H         -1.3867620616       -0.9431661282        1.7049982495
 H         -4.6426357432       -0.0968714536       -1.4827105869
 H         -3.2957570289        0.6405749408       -3.2486148411
 H         -1.2006373999        1.7347886291       -3.9550750696
 H          0.4080201849        2.5431596106       -2.2762228549
 H         -0.3691458462        2.4426659589        1.4124153386
 C          0.6784358863        3.8426600199        0.1911718678
 C         -0.2467052088        4.9991001909        0.4159009038
 C          0.9039472436        4.7669588339        1.3477834164
 H          1.7444666681        5.4437129692        1.3105456868
 H          0.6906861575        4.3914298357        2.3385178259
 H         -0.1987296903        5.8377594222       -0.2614770649
 H         -1.2413421478        4.7798223974        0.7752013896
 H          1.3756145462        3.9061579702       -0.6331922594
