  62
        -98.94014112
 C         -2.4347662267       -0.8621358692       -0.0149701040
 C         -2.7345847370        0.4960561950        0.2490890173
 C         -4.1295991846        0.7781169857        0.6117417851
 C         -5.0149421974       -0.2308438028        0.7054537046
 C         -6.4630279380       -0.1063023950        1.0952981695
 C         -7.3929860970        0.2680053396       -0.0667919429
 C         -7.2808587235        1.7149252277       -0.5483528741
 H         -8.1300251760        1.8991427306       -1.2093949688
 H         -7.3788557170        2.3887612903        0.3032832111
 C         -5.9857484175        2.0298214181       -1.3099518877
 H         -5.5148671020        1.0974724576       -1.6302053518
 H         -6.2231647782        2.5946287673       -2.2143370588
 C         -4.9675306328        2.8505369686       -0.5181262850
 H         -4.0772834047        2.9825610909       -1.1384791664
 H         -5.3795402680        3.8395865624       -0.3058157406
 C         -4.5302079586        2.2094196468        0.8055779557
 H         -5.3292528825        2.2857473632        1.5426640427
 H         -3.6560771450        2.7499619641        1.1768501676
 H         -7.1993985509       -0.4100421450       -0.9011421772
 H         -8.4184243956        0.0975880977        0.2690423123
 H         -6.5650495944        0.6271034987        1.8955727824
 H         -6.7662120848       -1.0834721502        1.4772955134
 O         -4.6774367104       -1.5274539259        0.4702124627
 C         -3.3917261366       -1.8713308505        0.0864708131
 O         -3.2256434780       -3.0909673490       -0.1214640664
 O         -1.8855129530        1.4232304320        0.1908275494
 C         -1.0309159028       -1.2599244484       -0.4277869284
 C         -0.0231739461       -0.8599064671        0.6231761902
 C         -0.3151590900       -1.0760686418        1.9676664960
 C          0.5987870657       -0.7503017942        2.9506883869
 C          1.8345125306       -0.2251720516        2.6154159737
 C          2.1387529245       -0.0110667208        1.2770661954
 C          1.2105678269       -0.3224700672        0.2925352207
 H          1.4761545821       -0.1443573659       -0.7360262428
 N          3.3785790225        0.5289042103        0.8987584853
 S          4.0908621099       -0.0402803897       -0.5231571069
 O          3.5818442730        0.7179882900       -1.6379392369
 O          3.9484986381       -1.4761851300       -0.6069738949
 C          5.7965750062        0.3923932090       -0.2300028146
 C          6.6552280233       -0.5611440469        0.2839922114
 C          7.9726035768       -0.2115961221        0.5356261293
 C          8.4062575997        1.0792277602        0.2730007623
 C          7.5331754412        2.0251603521       -0.2436622443
 C          6.2148734820        1.6821026057       -0.4985929697
 H          5.5033794951        2.3801952143       -0.9080370451
 H          7.8748897188        3.0267102129       -0.4494558275
 H          9.4319671202        1.3488484464        0.4692533887
 H          8.6544902286       -0.9458094197        0.9334830112
 H          6.2760354556       -1.5544197905        0.4632912120
 H          4.0400027375        0.5696775431        1.6620298847
 H          2.5521523488        0.0216450831        3.3830640703
 H          0.3519777324       -0.9175646178        3.9885098085
 H         -1.2742310317       -1.5019501576        2.2312637303
 H         -1.0297684067       -2.3592041391       -0.4893162919
 C         -0.7154718216       -0.6991200725       -1.7994430302
 C          0.2307394606       -1.4165618788       -2.7129421042
 C         -1.2371147518       -1.4034937897       -3.0142586756
 H         -1.5887555020       -0.8098818969       -3.8447035541
 H         -1.7996438837       -2.3123330741       -2.8553935098
 H          0.8942856815       -0.8291177663       -3.3306171941
 H          0.6715584908       -2.3354446528       -2.3552608683
 H         -0.7097976413        0.3854002439       -1.8125007341
