  62
        -98.93465842
 C         -2.1651411544       -0.8038910289        0.1364847139
 C         -3.0236264021       -0.1734934436        1.0695135693
 C         -3.9006232696        0.8937108237        0.5568114563
 C         -3.8129500176        1.2517508408       -0.7376234603
 C         -4.5429452826        2.3167731437       -1.5290611596
 C         -5.8042134612        2.9748317730       -0.9753602430
 C         -7.0109522943        2.0450007003       -0.8528429368
 H         -7.8166417999        2.5948930950       -0.3615826859
 H         -7.3514014246        1.7832093293       -1.8578076589
 C         -6.7664976236        0.7416974941       -0.0962302372
 H         -6.0365789180        0.1354581261       -0.6368435255
 H         -7.7046962902        0.1803168212       -0.0853089366
 C         -6.3049984592        0.9020041361        1.3511371402
 H         -6.3277807404       -0.0877695441        1.8154676555
 H         -7.0062036148        1.5400920458        1.8923678957
 C         -4.8851864239        1.4661655593        1.5353497759
 H         -4.8820782790        2.5528349756        1.4927020482
 H         -4.5325328779        1.1768467653        2.5298324536
 H         -6.0717089058        3.7708236675       -1.6756624077
 H         -5.5935480700        3.4525676028       -0.0230243895
 H         -4.7731889059        1.8606325534       -2.4971306847
 H         -3.8023816219        3.0996859876       -1.7268496187
 O         -2.9148087633        0.6672063572       -1.5823382180
 C         -2.0789998874       -0.3673942436       -1.1851342195
 O         -1.3305708901       -0.7824152132       -2.0876039914
 O         -3.0511515267       -0.4822412135        2.2918364575
 C         -1.2767791971       -1.9267401569        0.6389316651
 C          0.1461118106       -1.7191561492        0.1831234438
 C          0.8668103741       -2.6519237374       -0.5495848177
 C          2.1761898783       -2.3935789210       -0.9171625375
 C          2.7930289103       -1.2076528966       -0.5663816335
 C          2.0824557293       -0.2670547276        0.1683380819
 C          0.7750691157       -0.5324916711        0.5424909117
 H          0.2215515885        0.2016719694        1.1169355715
 N          2.7001829295        0.9488224094        0.5178063369
 S          4.1588158010        0.8677227616        1.3485356917
 O          4.2469003814       -0.3364102425        2.1422627422
 O          4.2544163705        2.1193009038        2.0681696531
 C          5.3892467908        0.8420399893        0.0625350475
 C          6.2967117868       -0.1972145063       -0.0004076391
 C          7.2526145128       -0.1917722387       -1.0043547586
 C          7.2843805993        0.8476874137       -1.9212846686
 C          6.3671550362        1.8852191611       -1.8426591624
 C          5.4095558212        1.8863345716       -0.8410681780
 H          4.6814537299        2.6742680395       -0.7429087529
 H          6.3949804314        2.6915784078       -2.5577624321
 H          8.0283939375        0.8496823046       -2.7021382296
 H          7.9666090365       -0.9971146557       -1.0674134327
 H          6.2295239912       -0.9862812651        0.7314236887
 H          2.0771312916        1.6009588230        0.9721043234
 H          3.8096597201       -1.0008317287       -0.8583747074
 H          2.7220684349       -3.1256382152       -1.4924952747
 H          0.3985604924       -3.5742556084       -0.8508368275
 H         -1.2927471443       -1.8140579422        1.7368141449
 C         -1.8095406857       -3.3211363227        0.3439597671
 C         -3.2764721774       -3.5644336028        0.1561655966
 C         -2.3389366114       -3.7096243832       -1.0028432438
 H         -2.1288119684       -4.7043680937       -1.3679088622
 H         -2.3468691382       -2.9542208636       -1.7725970534
 H         -3.7076204289       -4.4553891654        0.5875620586
 H         -3.9336390095       -2.7070791142        0.1788389649
 H         -1.2655537711       -4.0845128694        0.8920105610
