  62
        -98.93841554
 C         -1.2881180322       -0.8611477034       -0.5180431150
 C         -2.5105508081       -1.3577700308        0.0202480228
 C         -3.3725484859       -0.4045915894        0.7274672578
 C         -2.9596907231        0.8665850468        0.8702829771
 C         -3.7482800233        1.9607045132        1.5284671703
 C         -4.6183159735        2.7108100532        0.5100604164
 C         -5.4445287030        1.7927260343       -0.3908320978
 H         -6.0402795703        2.4312546220       -1.0466262973
 H         -4.7692220641        1.2175129845       -1.0282744802
 C         -6.3707454259        0.8284141964        0.3631980280
 H         -6.5131669144        1.1758601983        1.3871343983
 H         -7.3499603789        0.8335380242       -0.1201705008
 C         -5.8921113059       -0.6245553134        0.3841439758
 H         -5.6573466260       -0.9479745400       -0.6330400454
 H         -6.7147416838       -1.2481898557        0.7440932819
 C         -4.6765348757       -0.9144049079        1.2738377695
 H         -4.8521081324       -0.5207953868        2.2774173407
 H         -4.5675455423       -2.0004753293        1.3457444800
 H         -3.9655479934        3.3155851567       -0.1235619467
 H         -5.2829183539        3.3844126656        1.0541486287
 H         -3.0473500808        2.6619941346        1.9849272191
 H         -4.3728559091        1.5296212616        2.3088358339
 O         -1.7792051163        1.3061317956        0.3767429653
 C         -0.9150098359        0.4724890929       -0.3262176968
 O          0.1071057836        1.0707209363       -0.7084070668
 O         -2.8728354106       -2.5612330166       -0.0908645969
 C         -0.4482857428       -1.9074568758       -1.2354155991
 C          0.7554670819       -2.3526356118       -0.4352419807
 C          0.9439140591       -3.7025577352       -0.1543165314
 C          2.0420339914       -4.1256001059        0.5724067917
 C          2.9658650724       -3.2111538101        1.0459296989
 C          2.7866211630       -1.8607275916        0.7702758051
 C          1.6979064370       -1.4426296094        0.0187656066
 H          1.5679269488       -0.3935779840       -0.1811076538
 N          3.7101448899       -0.9047256267        1.2146292221
 S          3.1955787395        0.6295376536        1.6459315485
 O          4.2753893001        1.1422107687        2.4689736718
 O          1.8994649438        0.5971576245        2.2855024927
 C          3.1664422417        1.5631741754        0.1317244989
 C          3.9176631906        1.1473679741       -0.9485978355
 C          3.9140158665        1.9180552414       -2.0999701649
 C          3.1706817020        3.0867341017       -2.1488421100
 C          2.4276587552        3.4928077227       -1.0522137955
 C          2.4240477410        2.7251973629        0.1008709031
 H          1.8425135368        2.9950828214        0.9680966044
 H          1.8417684423        4.3972604656       -1.0927663397
 H          3.1643829568        3.6818170798       -3.0486742134
 H          4.4859394019        1.6008780812       -2.9572507050
 H          4.4757601517        0.2280208835       -0.8842732296
 H          4.4344014215       -1.2486660723        1.8277391470
 H          3.8156993319       -3.5363555569        1.6265555995
 H          2.1743521758       -5.1758484360        0.7840065231
 H          0.2128749950       -4.4199661942       -0.4982023881
 H         -1.1304260413       -2.7717020356       -1.2759033515
 C         -0.0407999716       -1.6576615509       -2.6852230901
 C         -0.6936472825       -0.6302414442       -3.5569867555
 C          0.7518465548       -0.4894429753       -3.1844910005
 H          1.4972394971       -0.6781685341       -3.9430890001
 H          1.0113711918        0.2904709361       -2.4889213480
 H         -0.9555643739       -0.8989665395       -4.5697324432
 H         -1.3928463761        0.0468963684       -3.0874566548
 H          0.1885827725       -2.6027038373       -3.1712129095
