  62
        -98.94803594
 C         -1.2652948856       -1.0478890544        0.0085182027
 C         -1.6232549448        0.0424675222        0.8360085963
 C         -2.6539364296        0.9433536987        0.3061585611
 C         -3.1400317471        0.7288058955       -0.9299877827
 C         -4.2205691909        1.5435096522       -1.5789309365
 C         -5.6098576313        0.9575208398       -1.2902264761
 C         -5.8570444993        0.6537762046        0.1873943475
 H         -5.1864810471       -0.1489288929        0.5021718099
 H         -6.8773737263        0.2744849105        0.2749288213
 C         -5.6772757762        1.8587450368        1.1212248426
 H         -6.5108255616        1.8833227999        1.8262363306
 H         -5.7134671778        2.7834209465        0.5441123872
 C         -4.3927076880        1.8309867058        1.9513557948
 H         -4.3064271406        0.8671304253        2.4591425606
 H         -4.4691404980        2.6023682162        2.7222577272
 C         -3.0925345610        2.0860980724        1.1780288435
 H         -2.2913528881        2.2292995356        1.9094598314
 H         -3.1832795206        3.0034141127        0.5919361742
 H         -5.7161006539        0.0278574847       -1.8540016159
 H         -6.3622389483        1.6614669777       -1.6504855524
 H         -4.1620690967        2.5681438777       -1.2161548264
 H         -4.0501253961        1.5416996993       -2.6570375575
 O         -2.7284161233       -0.2940920448       -1.7216370503
 C         -1.7828464975       -1.2072800899       -1.2765431315
 O         -1.4954657771       -2.0928297086       -2.1042940077
 H          0.8315151299        0.1588538744       -0.6134787858
 C          1.4340394658       -0.7116519799       -0.8210962122
 C          1.0249940423       -1.9549880381       -0.3599775661
 C          1.8021616717       -3.0636704215       -0.6726085070
 C          2.9472201338       -2.9212115323       -1.4373016169
 C          3.3575267317       -1.6773983325       -1.8820880569
 C          2.5898739024       -0.5614306749       -1.5694312781
 N          2.9632168980        0.7235795667       -1.9910435957
 S          2.6802247773        2.0303608573       -0.9859115713
 O          1.2837110539        2.3885330008       -1.0025933938
 O          3.5951214194        3.0464517369       -1.4624074675
 C          3.1887881023        1.4760942839        0.6320083691
 C          4.5426636261        1.2815976831        0.8321532686
 C          4.9810371347        0.8020906780        2.0547705254
 C          4.0610846681        0.5196590232        3.0536818028
 C          2.7077901176        0.7258776116        2.8398502477
 C          2.2626473904        1.2091688318        1.6187654602
 H          1.2118149192        1.3693234135        1.4338110599
 H          1.9835735092        0.5089954813        3.6090429303
 H          4.3996038438        0.1395420338        4.0045970947
 H          6.0341881240        0.6467669888        2.2245386901
 H          5.2265698486        1.5237062768        0.0349449396
 H          3.8634221299        0.7812531756       -2.4436422509
 H          4.2537830878       -1.5690274516       -2.4731233138
 H          3.5353319523       -3.7921352537       -1.6833303030
 H          1.5066303994       -4.0399619794       -0.3250732056
 C         -0.2154084018       -2.0268558798        0.4976723545
 H          0.0597271551       -1.6778487637        1.5053569240
 C         -0.7923212643       -3.4231989417        0.6071973707
 C         -0.3085228315       -4.3639973912        1.6689828611
 C         -1.6713678214       -3.7510996017        1.7759390308
 H         -2.5365678201       -4.3756880172        1.6117271780
 H         -1.8279199379       -2.9745026356        2.5105676517
 H          0.4581804597       -4.0093334698        2.3409663291
 H         -0.2396490408       -5.4152193203        1.4329341929
 H         -1.0688528690       -3.8337430616       -0.3572767520
 O         -1.1006034354        0.2530612006        1.9646170968
