  62
        -98.94190012
 C         -0.0498432733       -2.1104539507        0.4468948214
 C          0.6425981152       -1.0448464729        1.0693581863
 C          2.1024812595       -0.9955983699        0.8536850148
 C          2.6789755446       -1.8901990653        0.0349734980
 C          4.1217106820       -1.9598104592       -0.3836081599
 C          4.3437255011       -1.1742091782       -1.6873115897
 C          4.6729035447        0.3053034139       -1.4984296583
 H          5.6728555663        0.3985088873       -1.0681264945
 H          4.6975184988        0.7611871302       -2.4911646840
 C          3.6883851168        1.0904030468       -0.6274401672
 H          3.8167864491        2.1500704129       -0.8641809475
 H          2.6631852837        0.8261285187       -0.8989178855
 C          3.9172244454        0.8847341863        0.8776750902
 H          4.8878178034        0.4105861521        1.0248944012
 H          3.9719878759        1.8585252783        1.3693399369
 C          2.8324508433        0.0815370796        1.6091651162
 H          3.2699192302       -0.3654295056        2.5086031056
 H          2.0434144928        0.7607893135        1.9457805796
 H          3.4412656971       -1.2707521044       -2.2972385951
 H          5.1645549389       -1.6352485685       -2.2410113126
 H          4.7726669867       -1.6002946587        0.4078233361
 H          4.3412826613       -3.0132744342       -0.5695636354
 O          1.9683687112       -2.8668434611       -0.5942384897
 C          0.6094276280       -3.0060987215       -0.3993188632
 O          0.0996996905       -3.9620758990       -1.0206069691
 H         -1.3173947483        0.3072471554        0.1109605492
 C         -2.0136300217       -0.1520777657       -0.5702366238
 C         -2.2769365270       -1.5094808769       -0.4681255764
 C         -3.1887819404       -2.0806798463       -1.3474518510
 C         -3.8051348686       -1.3090685827       -2.3170920829
 C         -3.5021468340        0.0347394972       -2.4473424632
 C         -2.5912464833        0.6127299402       -1.5709342642
 N         -2.2331910479        1.9659995535       -1.6662544739
 S         -0.6374690415        2.3969444391       -1.3721411912
 O         -0.4545380358        3.6301023783       -2.1139027707
 O          0.2744198366        1.3293960049       -1.7151242520
 C         -0.5567255794        2.7858495350        0.3631105383
 C         -1.7053959066        2.9098586248        1.1163371020
 C         -1.5914633627        3.2522451766        2.4544156759
 C         -0.3419508141        3.4710390904        3.0112672047
 C          0.8012375367        3.3506558048        2.2378769282
 C          0.6948912944        3.0055299953        0.9006414816
 H          1.5589881726        2.8874255091        0.2666290113
 H          1.7744541485        3.5158204938        2.6728828383
 H         -0.2569825343        3.7305119132        4.0548946017
 H         -2.4797693124        3.3401447478        3.0595102053
 H         -2.6638911934        2.7230101553        0.6607331748
 H         -2.6117116064        2.4598423855       -2.4612460032
 H         -3.9581492375        0.6296269208       -3.2241721310
 H         -4.5119833563       -1.7633697656       -2.9948952104
 H         -3.3964227511       -3.1386341419       -1.2829468440
 C         -1.5507324243       -2.3348724842        0.5668321852
 H         -1.7151642293       -3.3941447310        0.3247952949
 C         -2.1051270110       -2.0661942183        1.9520350755
 C         -3.3887352385       -2.7215739822        2.3604130884
 C         -2.0937679220       -3.1614203743        2.9736630825
 H         -1.8915353441       -2.9025377567        4.0018766338
 H         -1.6871059149       -4.1175519571        2.6768490557
 H         -4.0810507296       -2.1605627794        2.9687733368
 H         -3.8625755130       -3.3831946209        1.6511247100
 H         -1.9172863315       -1.0591362292        2.2990323762
 O          0.0952790876       -0.1598980079        1.7805820745
