  62
        -98.94024064
 C         -2.4468251559       -0.9261778843       -0.0249900631
 C         -2.6452940113        0.4462367607        0.2601679270
 C         -4.0163223066        0.8263006715        0.6245317506
 C         -4.9754168733       -0.1144665586        0.6983431434
 C         -6.4126221435        0.1136888378        1.0813389644
 C         -7.3023234833        0.5761530719       -0.0806577322
 C         -7.0775994722        2.0180153109       -0.5376224996
 H         -7.9056258776        2.2766388468       -1.2005630510
 H         -7.1303290602        2.6836523913        0.3244029038
 C         -5.7570933224        2.2463839594       -1.2863992282
 H         -5.3556523023        1.2864548075       -1.6195402820
 H         -5.9447820589        2.8422290498       -2.1825290240
 C         -4.6854854878        2.9747617477       -0.4749333416
 H         -5.0227754449        3.9887454352       -0.2487779058
 H         -3.7830773951        3.0486780001       -1.0873725226
 C         -4.3081673689        2.2805639717        0.8403925705
 H         -3.3980142133        2.7464800602        1.2260288176
 H         -5.1044323639        2.4056072196        1.5737876369
 H         -7.1540252293       -0.1011100827       -0.9248624379
 H         -8.3403641993        0.4786708326        0.2454038621
 H         -6.7921833986       -0.8432413461        1.4457843497
 H         -6.4644765321        0.8404130198        1.8924086716
 O         -4.7345318886       -1.4290300777        0.4450595044
 C         -3.4763933455       -1.8628354698        0.0607955006
 O         -3.4004705312       -3.0887692420       -0.1612615735
 H          1.4235350145       -0.2588300250       -0.7109777347
 C          1.1730032483       -0.5090584004        0.3059700673
 C         -0.0483729841       -1.0857426787        0.6135231250
 C         -0.3237318205       -1.3934525482        1.9438990411
 C          0.5966272849       -1.1210633652        2.9368490947
 C          1.8186064812       -0.5510375606        2.6246337235
 C          2.1037703002       -0.2409809892        1.3008266080
 N          3.3242572251        0.3599505861        0.9534953084
 S          4.0317799770       -0.0386477791       -0.5260073518
 O          3.4405853306        0.7665140982       -1.5646765632
 O          3.9919434061       -1.4699881098       -0.7254007934
 C          5.7070051824        0.4985468698       -0.2316110587
 C          6.6660619909       -0.4293604100        0.1279634917
 C          7.9572239118        0.0055545278        0.3831361613
 C          8.2648380509        1.3536697104        0.2785144245
 C          7.2916923271        2.2732260606       -0.0842755533
 C          5.9993457640        1.8450571845       -0.3425271355
 H          5.2129259145        2.5209076684       -0.6358673772
 H          7.5353192309        3.3201054748       -0.1676522618
 H          9.2700774564        1.6897541812        0.4779416055
 H          8.7166847412       -0.7069820975        0.6620785127
 H          6.3824147721       -1.4677295511        0.1894469512
 H          3.9981944171        0.3476109367        1.7066504249
 H          2.5397758690       -0.3411814701        3.3999371022
 H          0.3653319287       -1.3623347982        3.9636306035
 H         -1.2752091724       -1.8478881851        2.1870111312
 C         -1.0743162027       -1.4201021153       -0.4422200329
 H         -1.1488027167       -2.5164775625       -0.5042049249
 C         -0.7217764240       -0.8807971019       -1.8128931155
 C          0.2174174054       -1.6363947922       -2.7025878745
 C         -1.2434938356       -1.5785096399       -3.0313427087
 H         -1.5599538929       -0.9806166077       -3.8728147686
 H         -1.8381650203       -2.4672430577       -2.8764247931
 H          0.9112590863       -1.0761216600       -3.3120428086
 H          0.6212190025       -2.5655202441       -2.3284442642
 H         -0.6803011016        0.2028508994       -1.8356153665
 O         -1.7298365487        1.3088223608        0.2171944557
