  62
        -98.94759694
 C          2.5269517282       -0.2966711678       -0.0082190016
 C          2.2117464007       -1.3045545043        0.9328091447
 C          1.5692768312       -2.5106418857        0.3968581149
 C          1.3385934119       -2.5990831200       -0.9257297284
 C          0.6904894713       -3.7697501758       -1.6071989598
 C         -0.8255049616       -3.5834971383       -1.7458815882
 C         -1.5286166153       -3.1909383130       -0.4462378079
 H         -1.2363279083       -2.1734437588       -0.1756208128
 H         -2.6009882102       -3.1625269009       -0.6558196222
 C         -1.2662789505       -4.1285188464        0.7399437431
 H         -2.2117850602       -4.3032512644        1.2574586157
 H         -0.9072815159       -5.0938983298        0.3800248512
 C         -0.2889591885       -3.5735947828        1.7784862550
 H         -0.3834769011       -4.1705375782        2.6899379039
 H         -0.5720811675       -2.5462766466        2.0258636397
 C          1.1916012554       -3.5868600799        1.3749584493
 H          1.7851734120       -3.3942657693        2.2736701114
 H          1.4607809566       -4.5731677378        0.9900353582
 H         -1.2515194825       -4.5140449758       -2.1270333729
 H         -1.0114020295       -2.7932247940       -2.4769451037
 H          0.9054012045       -4.6737433859       -1.0400164931
 H          1.1256661162       -3.8644888422       -2.6039821762
 O          1.6688951659       -1.6170420660       -1.8026676797
 C          2.2204955070       -0.4240637054       -1.3630238733
 O          2.4141058771        0.4151966750       -2.2642271475
 O          2.4646623218       -1.2012472439        2.1654903258
 C          3.0946311511        1.0219755901        0.4894811056
 C          2.0763314989        2.1062731508        0.2309587023
 C          2.3743098047        3.3443649506       -0.3221862924
 C          1.3617623184        4.2525308671       -0.5838720487
 C          0.0395473722        3.9408201299       -0.3251174660
 C         -0.2652269309        2.7108287581        0.2472844097
 C          0.7539215748        1.8248534204        0.5475917911
 H          0.5058182252        0.8751904947        0.9989330267
 N         -1.5912865973        2.3327634888        0.5309487357
 S         -1.9590042483        0.6995718106        0.2637720277
 O         -1.6257953747       -0.0466940667        1.4515426947
 O         -1.3638350407        0.2549544619       -0.9751733883
 C         -3.7328712607        0.7853221973        0.1031066891
 C         -4.3041300446        0.7533712682       -1.1545602354
 C         -5.6823101831        0.8517792123       -1.2675701089
 C         -6.4604634098        0.9832046233       -0.1273318765
 C         -5.8724962926        1.0122472235        1.1287937755
 C         -4.4955869436        0.9122752169        1.2488723630
 H         -3.9937106307        0.9197286459        2.2022293137
 H         -6.4808415827        1.1109218023        2.0132535586
 H         -7.5323892403        1.0600282550       -0.2180588114
 H         -6.1416422892        0.8250973818       -2.2425184752
 H         -3.6574846148        0.6427878432       -2.0105718709
 H         -2.2707165345        2.9394755249        0.0911611653
 H         -0.7492188715        4.6377150913       -0.5647278372
 H          1.6049925609        5.2094412024       -1.0205097100
 H          3.3949372695        3.5920831696       -0.5641659079
 H          3.2026285848        0.9015669971        1.5783259872
 C          4.4540647133        1.3050312849       -0.1112455422
 C          5.4499292684        2.1378565442        0.6380683021
 C          5.6632108008        0.6616952173        0.4965163334
 H          6.4448645733        0.3115371220       -0.1605808905
 H          5.5073583660        0.0349263584        1.3625203748
 H          6.0908608057        2.8023449770        0.0786706061
 H          5.1568261290        2.5156921465        1.6058837084
 H          4.4204782473        1.3890837270       -1.1914747451
