  62
        -98.94505252
 C         -2.4563697795       -1.2296450213       -0.1188892896
 C         -3.3419667395       -0.6717939914        0.8417142404
 C         -4.1429218996        0.4744073885        0.4024777705
 C         -4.0188185796        0.9280861186       -0.8575765694
 C         -4.7739255597        2.0787419686       -1.4649254593
 C         -4.1552975998        3.4518870286       -1.1688184593
 C         -4.3328396097        3.9490426985        0.2664723408
 H         -4.0512861698        5.0038760186        0.2759374308
 H         -5.3861287397        3.8899138385        0.5424876208
 C         -3.4833637597        3.2040067085        1.3058637907
 H         -3.0056459297        3.9272387485        1.9708069807
 H         -2.6802811597        2.6610127186        0.8006618306
 C         -4.2663811696        2.2291245784        2.1857529907
 H         -3.5598804096        1.7318129884        2.8550534006
 H         -4.9802713596        2.7830927084        2.7992409507
 C         -5.0268075896        1.1460453884        1.4095361606
 H         -5.3596595895        0.3852976684        2.1196727906
 H         -5.9006007596        1.5763867784        0.9209642707
 H         -3.0904424298        3.4158113187       -1.4124869193
 H         -4.6252256298        4.1732037087       -1.8414603992
 H         -5.8081603497        2.0619978286       -1.1202028193
 H         -4.7638523897        1.9221354987       -2.5457288493
 O         -3.1747297596        0.3572913787       -1.7552075495
 C         -2.3582995496       -0.7106995213       -1.4096914896
 O         -1.6238195396       -1.0889789912       -2.3457670896
 O         -3.4616585995       -1.1203481915        2.0122772304
 C         -1.5964890594       -2.3963238513        0.3426960703
 C         -0.2043337895       -1.9049287713        0.6600045303
 C          0.2136339006       -1.7615659514        1.9783247503
 C          1.4709953906       -1.2620695513        2.2692327003
 C          2.3334554105       -0.8893225412        1.2536760403
 C          1.9197166705       -1.0167995411       -0.0656540797
 C          0.6662918405       -1.5342939312       -0.3552041697
 H          0.3444309405       -1.6078565711       -1.3832144497
 N          2.7815269904       -0.6146891810       -1.1063405397
 S          3.3008367604        0.9848338390       -1.0549798696
 O          2.3489343003        1.8298724989       -0.3693992295
 O          3.6058756103        1.3371265691       -2.4247847596
 C          4.8212408704        0.8990318790       -0.1310167097
 C          5.8080092704        0.0450771591       -0.5840100098
 C          7.0006113204       -0.0309154109        0.1173510702
 C          7.1866722004        0.7462812990        1.2511311203
 C          6.1875749504        1.6009885089        1.6909742303
 C          4.9912453904        1.6806566189        0.9947517904
 H          4.1831168004        2.3250029089        1.3024989404
 H          6.3338284604        2.2043732589        2.5724421504
 H          8.1158148005        0.6854058990        1.7954070102
 H          7.7796334605       -0.6947600509       -0.2213044099
 H          5.6230745704       -0.5379965409       -1.4706289998
 H          2.4044308004       -0.8185134510       -2.0220567397
 H          3.3111366505       -0.4915979512        1.4724688903
 H          1.7817169006       -1.1580320614        3.2976313403
 H         -0.4652747594       -2.0266330514        2.7759589803
 H         -2.0547924294       -2.7319278114        1.2825958903
 C         -1.5848988494       -3.5599636613       -0.6276362098
 C         -1.1542316993       -4.9079988013       -0.1350361199
 C         -2.5935436394       -4.6559367213       -0.4673503398
 H         -3.0070879194       -5.1077729613       -1.3564817199
 H         -3.2986273393       -4.5710239314        0.3466100802
 H         -0.5762611293       -5.5365475912       -0.7947805999
 H         -0.8826697893       -4.9942991713        0.9061069301
 H         -1.3156066995       -3.2815686012       -1.6380444598
