  62
        -98.94480893
 C         -1.6918838257       -1.0348907992       -0.6737545038
 C         -1.6527825022        0.1114192330        0.1576177085
 C         -2.9136032292        0.4521525520        0.8311171856
 C         -3.9989238561       -0.3235453864        0.6610914502
 C         -5.3471645014       -0.1147696656        1.2956250191
 C         -6.2401800360        0.8858012129        0.5489497293
 C         -5.8281811614        2.3526013362        0.6815091734
 H         -6.6562912840        2.9529403279        0.2994822552
 H         -5.7062858844        2.6006481659        1.7363975096
 C         -4.5531510564        2.7252287490       -0.0877738067
 H         -4.3374875631        1.9535752697       -0.8301731365
 H         -4.7165569717        3.6578138150       -0.6324141311
 C         -3.3178127123        2.9246748418        0.7906457329
 H         -3.4703852138        3.7819521453        1.4501680111
 H         -2.4670859064        3.1465759094        0.1416780802
 C         -2.9520821330        1.7072911168        1.6498826856
 H         -1.9526351354        1.8636857578        2.0647982330
 H         -3.6575398258        1.6029340291        2.4742172702
 H         -6.2670502852        0.6087963936       -0.5073822417
 H         -7.2519794126        0.7779951524        0.9465218430
 H         -5.8444559733       -1.0871452503        1.2953504531
 H         -5.2195742484        0.2092695219        2.3289861098
 O         -3.9862650353       -1.4356096079       -0.1211577581
 C         -2.8438763634       -1.8125302934       -0.8074662201
 O         -2.9778086097       -2.8463118313       -1.4935311044
 H          1.9580697487       -0.4558801480       -0.5928369808
 C          1.7088724653       -1.3764230822       -0.0968760901
 C          0.5348714222       -2.0390068702       -0.4139194867
 C          0.2430367192       -3.2335390142        0.2409724274
 C          1.1090181876       -3.7482703561        1.1857068054
 C          2.2738634259       -3.0731982285        1.5110459628
 C          2.5696695470       -1.8770827918        0.8712446982
 N          3.7478595460       -1.1654469705        1.1626960570
 S          3.6012912167        0.4530379167        1.6077109969
 O          4.8523982001        0.7465477771        2.2781817057
 O          2.4054499719        0.6762398804        2.3852186432
 C          3.5586986838        1.3456087659        0.0692481615
 C          2.4131803900        2.0142015258       -0.3151162606
 C          2.4166220064        2.6959402832       -1.5227863265
 C          3.5537130577        2.6982386900       -2.3160059971
 C          4.6962504244        2.0239967079       -1.9111889478
 C          4.7021382154        1.3413552827       -0.7057346394
 H          5.5689598123        0.8107513219       -0.3486382308
 H          5.5780754181        2.0274500419       -2.5313940612
 H          3.5469444993        3.2278488042       -3.2558774883
 H          1.5254498284        3.2153121788       -1.8387224476
 H          1.5354969394        1.9628700316        0.3109186910
 H          4.3614215480       -1.6405778571        1.8104733522
 H          2.9466728676       -3.4689776216        2.2573612379
 H          0.8737327852       -4.6785523153        1.6809875291
 H         -0.6755465028       -3.7500401271       -0.0029994624
 C         -0.4533697835       -1.5031397955       -1.4222824302
 H         -0.7818020387       -2.3441922910       -2.0487731122
 C          0.1093348805       -0.4159959342       -2.3127995657
 C          1.0985657655       -0.7723083381       -3.3803007339
 C         -0.2932012018       -0.3612339451       -3.7542608774
 H         -0.4416781886        0.6058592533       -4.2104010351
 H         -0.9723176431       -1.1210508681       -4.1132731770
 H          1.9093750125       -0.0877148973       -3.5781187824
 H          1.3641985719       -1.8133458306       -3.4848686883
 H          0.2394611475        0.5281109222       -1.7994095957
 O         -0.6319080304        0.8256290339        0.3292095463
