  62
        -98.93430827
 C         -2.2432715207       -1.3534371570        0.1670510986
 C         -3.1859557786       -0.7100111054        1.0075071181
 C         -3.9929584664        0.3562459882        0.3958322753
 C         -3.7762669311        0.6818209175       -0.8911531859
 C         -4.4563090602        1.7948624148       -1.6366726050
 C         -3.8370442536        3.1502918184       -1.2397603450
 C         -4.7899097805        4.0858484428       -0.4946640312
 H         -4.1903111169        4.8992923225       -0.0803976170
 H         -5.4880981095        4.5232469223       -1.2112477025
 C         -5.6114543547        3.4477077672        0.6297434311
 H         -6.4593511522        2.9090268425        0.2043023614
 H         -6.0273968899        4.2656431621        1.2218357365
 C         -4.8479716190        2.5015457320        1.5653721055
 H         -3.7831340170        2.7370237411        1.5639507476
 H         -5.2079918750        2.6662119800        2.5829115582
 C         -5.0399080175        1.0042356852        1.2592507903
 H         -5.0079963220        0.4489514552        2.2013734804
 H         -6.0272978413        0.8458567467        0.8170327093
 H         -2.9553895634        2.9577185468       -0.6237402295
 H         -3.4828117912        3.6646302256       -2.1346112427
 H         -5.5227832210        1.7834919099       -1.4227097091
 H         -4.3101310775        1.6089996118       -2.7008926627
 O         -2.8333086103        0.0730612544       -1.6548871809
 C         -2.0348371658       -0.9482659187       -1.1524419843
 O         -1.2080153681       -1.3875465000       -1.9715377179
 O         -3.3414240201       -1.0111706509        2.2218576137
 C         -1.3851438899       -2.4466715376        0.7803358279
 C          0.0676466731       -2.1855710257        0.4708522986
 C          0.8848090012       -3.0665245706       -0.2234889572
 C          2.2018686651       -2.7347311671       -0.4913855890
 C          2.7322467737       -1.5286278300       -0.0726795643
 C          1.9222474815       -0.6380789795        0.6200034850
 C          0.6066363433       -0.9756833138        0.8923905686
 H         -0.0271287706       -0.2767934643        1.4264074565
 N          2.4520257161        0.5907875955        1.0569043647
 S          3.2155880867        1.5639430676       -0.0815472751
 O          3.0927395118        2.9099468650        0.4371151072
 O          2.7018688755        1.3385946729       -1.4124258168
 C          4.9206993273        1.0607293653        0.0150403726
 C          5.5530000442        1.1356562417        1.2407936124
 C          6.8812148446        0.7517867679        1.3325789041
 C          7.5512961127        0.3044482214        0.2034665601
 C          6.9031942101        0.2382945671       -1.0204054836
 C          5.5740261471        0.6200312643       -1.1189761365
 H          5.0265465325        0.5803767255       -2.0474386315
 H          7.4254965185       -0.1092635496       -1.8973043617
 H          8.5850055184        0.0057836385        0.2775764222
 H          7.3886772266        0.8019750371        2.2824120635
 H          4.9968559309        1.4924836120        2.0914753671
 H          1.7965667169        1.1393617924        1.5953456606
 H          3.7550394776       -1.2647435695       -0.2870906951
 H          2.8237970458       -3.4254305577       -1.0401499342
 H          0.4833369009       -4.0005618066       -0.5801772709
 H         -1.5251831565       -2.3201504146        1.8673494777
 C         -1.8336653034       -3.8626935050        0.4544761767
 C         -3.2694558760       -4.1642582118        0.1479608398
 C         -2.2321993129       -4.2888540606       -0.9254607112
 H         -1.9543025883       -5.2798505639       -1.2537769148
 H         -2.2035204763       -3.5464605212       -1.7071024045
 H         -3.7032564764       -5.0653754097        0.5546815519
 H         -3.9561968329       -3.3313808876        0.1004331211
 H         -1.3088095755       -4.5982554991        1.0563921912
