  62
        -98.94530813
 C          2.1399159864        0.8935526764        0.0730900981
 C          2.8617056298        0.2328201229        1.0948454431
 C          3.5867359346       -0.9790198636        0.6904112805
 C          3.4903747708       -1.4083372601       -0.5814257486
 C          4.2105951254       -2.6007954709       -1.1398079747
 C          5.5704716107       -2.2030686098       -1.7308103270
 C          6.4202036957       -1.3395668779       -0.7984660687
 H          7.3677693396       -1.1486019478       -1.3066104467
 H          5.9284126189       -0.3738780737       -0.6611164537
 C          6.6940040601       -1.9681669399        0.5749432864
 H          6.5068640777       -3.0418458405        0.5350812489
 H          7.7497700415       -1.8319213393        0.8181773726
 C          5.8901775524       -1.3560770095        1.7235666029
 H          6.3144440727       -1.7153583085        2.6648389498
 H          6.0001468154       -0.2688789692        1.7086680395
 C          4.3927657618       -1.6885134990        1.7422451520
 H          3.9902860115       -1.3543853740        2.7032132557
 H          4.2544353933       -2.7694247898        1.6700172127
 H          6.1153366664       -3.1142240374       -1.9844198915
 H          5.3959976194       -1.6433719499       -2.6526040075
 H          3.5934978952       -3.0353911723       -1.9282671496
 H          4.3468247081       -3.3387506586       -0.3514356217
 O          2.7508899660       -0.7716437221       -1.5254803786
 C          2.0636789310        0.3970761633       -1.2285813361
 O          1.4369367807        0.8826311126       -2.1884721328
 O          2.8909637338        0.6329835150        2.2906567872
 C          1.3774599036        2.1620404862        0.4123833182
 C         -0.0958499007        1.9575688548        0.1573597099
 C         -0.8797999411        2.8388120890       -0.5746056306
 C         -2.2217011290        2.5719156800       -0.7864999418
 C         -2.8113627974        1.4335931293       -0.2693309130
 C         -2.0379269017        0.5480945409        0.4702937441
 C         -0.6955040195        0.8184785084        0.6816285245
 H         -0.0925187829        0.1236907386        1.2544539360
 N         -2.6309727558       -0.6068863468        1.0137454841
 S         -3.4909480702       -1.6060293469       -0.0292144566
 O         -3.4550413817       -2.9138787041        0.5899219727
 O         -2.9923863376       -1.5217117759       -1.3825876882
 C         -5.1532749927       -0.9727624764        0.0549201135
 C         -5.7560211270       -0.8875088882        1.2947942463
 C         -7.0515675465       -0.4026578185        1.3764562171
 C         -7.7197106660       -0.0168722886        0.2237452066
 C         -7.1019438395       -0.1122421423       -1.0138433495
 C         -5.8055170596       -0.5954453451       -1.1025564832
 H         -5.2818851624       -0.6819232811       -2.0414720417
 H         -7.6226183835        0.1876219852       -1.9090929253
 H         -8.7279008346        0.3604885850        0.2901967265
 H         -7.5351656517       -0.3269447066        2.3369950426
 H         -5.2033059239       -1.2011536845        2.1645183129
 H         -1.9958449296       -1.1558063591        1.5757172865
 H         -3.8541365042        1.2201221043       -0.4379717964
 H         -2.8170710634        3.2613505145       -1.3653255043
 H         -0.4386113332        3.7292516816       -0.9907953005
 H          1.5197497170        2.3076645334        1.4937548195
 C          1.9655158450        3.3488815759       -0.3206823760
 C          1.8503347020        4.7259420669        0.2595485946
 C          3.1745807024        4.0251515191        0.2503750387
 H          3.9399875077        4.3719314216       -0.4276049103
 H          3.5601951109        3.6442602701        1.1849433575
 H          1.7083318863        5.5583412411       -0.4128776289
 H          1.3383895693        4.8283228522        1.2042431216
 H          1.9161873661        3.2378721801       -1.3981390081
