  62
        -98.94145120
 C         -1.7540682168       -0.8826550503        0.2188694769
 C         -1.9880527610        0.4912862737       -0.0574304938
 C         -3.2931915670        0.8323649492       -0.6359376156
 C         -4.1736289307       -0.1525587106       -0.8892708156
 C         -5.5601723147        0.0502164821       -1.4262807621
 C         -6.5775560576        0.2121517561       -0.2881686966
 C         -6.1592357117        1.2295949892        0.7733278751
 H         -6.9656960933        1.2833489336        1.5079305008
 H         -5.2745069727        0.8570127948        1.2946282753
 C         -5.8703164834        2.6346513613        0.2265412609
 H         -6.3483413083        3.3687603058        0.8786200719
 H         -6.3132638868        2.7450260248       -0.7639247396
 C         -4.3854235191        2.9970650103        0.1610268869
 H         -3.9175614388        2.7991009401        1.1285885386
 H         -4.3062714267        4.0709917342       -0.0274711859
 C         -3.5704561032        2.2811874317       -0.9236375999
 H         -4.0664014493        2.3929541694       -1.8899895550
 H         -2.5922413265        2.7672441960       -0.9800515272
 H         -7.5354701154        0.5070025970       -0.7205434010
 H         -6.7087263470       -0.7567163667        0.1992994369
 H         -5.5711252903        0.9306421203       -2.0658533675
 H         -5.8300034377       -0.8238038653       -2.0214363411
 O         -3.9092196616       -1.4572453103       -0.6356788351
 C         -2.7042181316       -1.8605689787       -0.0762964705
 O         -2.6299854105       -3.0940304612        0.0917413912
 H          1.9487439416       -0.0902014888        0.2218065081
 C          1.7758097487       -0.9858160826       -0.3548893114
 C          0.5920512785       -1.6895647031       -0.1894690162
 C          0.3758782209       -2.8292818361       -0.9566708179
 C          1.3302882220       -3.2487291195       -1.8650226934
 C          2.5218016632       -2.5591908558       -2.0082728993
 C          2.7476953855       -1.4199895005       -1.2453191323
 N          3.9390092917       -0.6931149369       -1.3704267717
 S          4.6489861758        0.0005064844       -0.0225025515
 O          6.0410404309        0.1536966212       -0.3879816369
 O          4.3857509217       -0.7665419418        1.1721921250
 C          3.9031522571        1.6117923980        0.0935958848
 C          3.3441099454        2.0245678004        1.2862559170
 C          2.7842007256        3.2898345149        1.3626479727
 C          2.7950475414        4.1163618428        0.2501936144
 C          3.3642822242        3.6885633881       -0.9397396087
 C          3.9259262031        2.4249799949       -1.0219717021
 H          4.3794036004        2.0585454582       -1.9278285718
 H          3.3692829337        4.3353419316       -1.8023913021
 H          2.3550660383        5.0991824073        0.3118831377
 H          2.3379328027        3.6226775472        2.2860825555
 H          3.3516476653        1.3477541977        2.1266286568
 H          4.6224346644       -1.0959739136       -1.9945877069
 H          3.2717548125       -2.8990865667       -2.7064717340
 H          1.1508677057       -4.1322104659       -2.4592603630
 H         -0.5454989897       -3.3777979326       -0.8356886023
 C         -0.4103925303       -1.2219728574        0.8387666408
 H         -0.0370657181       -0.2724265752        1.2463845548
 C         -0.4877254923       -2.2278246640        1.9723153965
 C          0.6942381257       -2.3739217106        2.8821680640
 C         -0.5667134398       -1.7395879259        3.3859869302
 H         -1.1757097989       -2.2895578679        4.0877578094
 H         -0.5709710610       -0.6713996391        3.5474455856
 H          1.5527083779       -1.7444224866        2.6968364599
 H          0.9494981512       -3.3609240972        3.2367727203
 H         -1.0411259875       -3.1223358058        1.7183059634
 O         -1.1403203988        1.3933018720        0.1776971134
