  62
        -98.94010993
 C         -1.5095189991       -1.5141045986       -0.1225309319
 C         -1.5551933378       -0.1188952756       -0.3480663623
 C         -2.8969962737        0.4794305625       -0.4800136048
 C         -3.9848524277       -0.3075210235       -0.3841785385
 C         -5.4596604690        0.0115258863       -0.5173281562
 C         -5.9509483144        1.4563800998       -0.4848485738
 C         -5.7901154850        2.1566427621        0.8643644943
 H         -6.0711441750        3.2048610364        0.7411062888
 H         -6.4896758847        1.7068004851        1.5736166236
 C         -4.3969215104        2.0843664680        1.4846916925
 H         -4.1439825910        1.0434820517        1.6966679400
 H         -4.4315457521        2.6077250731        2.4441807216
 C         -3.2764442516        2.7082815442        0.6551758624
 H         -2.3762075926        2.7178248772        1.2754251989
 H         -3.5305741797        3.7424667988        0.4149902689
 C         -2.9294158003        1.9709413706       -0.6493977926
 H         -3.6011532946        2.2551954062       -1.4555649545
 H         -1.9164046958        2.2626555108       -0.9414389872
 H         -7.0195995648        1.4264762109       -0.7147007277
 H         -5.4764624908        2.0326416024       -1.2734699668
 H         -5.9601010463       -0.5546122580        0.2747929282
 H         -5.7764683865       -0.4404564313       -1.4638567559
 O         -3.8855529904       -1.6548136017       -0.1753622270
 C         -2.6631956212       -2.2868084555       -0.0272268120
 O         -2.7381668276       -3.5140894689        0.1874696956
 O         -0.5270741702        0.5981315945       -0.4386918794
 C         -0.1642875732       -2.1999690718        0.0274148054
 C          0.6442609949       -1.4970271625        1.0898977061
 C          0.0592442167       -1.2467488304        2.3291222779
 C          0.7523440025       -0.5709081397        3.3137740536
 C          2.0390345937       -0.1164430482        3.0807814392
 C          2.6370009201       -0.3750496918        1.8540567591
 C          1.9471575065       -1.0784453754        0.8755441700
 H          2.4450631060       -1.2868015298       -0.0554858782
 N          3.9411051712        0.0616713177        1.5900231861
 S          4.4277132174        0.4376382837        0.0387575218
 O          4.6908741652       -0.7714462773       -0.7021693907
 O          5.5686112608        1.3087791456        0.2325435906
 C          3.1013302320        1.3516599238       -0.7266943159
 C          2.5968347171        2.4607064670       -0.0794044912
 C          1.5901288699        3.1902374099       -0.6883495413
 C          1.1098120184        2.8034882353       -1.9287384156
 C          1.6286604933        1.6896664827       -2.5672875124
 C          2.6335748873        0.9545017000       -1.9616759426
 H          3.0597809397        0.0760131914       -2.4210288668
 H          1.2458177773        1.3847423806       -3.5287323043
 H          0.3207424221        3.3693193659       -2.3990960817
 H          1.1765034724        4.0531380866       -0.1912172128
 H          2.9910732390        2.7409331546        0.8841956719
 H          4.3380444317        0.6834633100        2.2780069707
 H          2.5758027668        0.4290438862        3.8417897568
 H          0.2832345398       -0.3820578280        4.2678095425
 H         -0.9543980104       -1.5821873910        2.5043612197
 H         -0.3727437021       -3.2260006533        0.3640135838
 C          0.5336580418       -2.2540380897       -1.3157482589
 C          1.5249941003       -3.3374233765       -1.6124476836
 C          0.1839129221       -3.3437815193       -2.2817667879
 H          0.1294453069       -3.1041265224       -3.3330938812
 H         -0.5453050359       -4.0743507297       -1.9624255961
 H          2.3983901997       -3.0935798331       -2.1991867556
 H          1.7101275137       -4.0702369569       -0.8414419192
 H          0.7195994388       -1.2660152342       -1.7224164928
