  62
        -98.93157822
 C         -1.7704025971       -0.7831364033        0.3850980207
 C         -2.1557741895        0.5143856968       -0.0400198287
 C         -3.5557499466        0.6880998414       -0.4523825405
 C         -4.3788827241       -0.3752621331       -0.4240711263
 C         -5.8485805795       -0.3520007216       -0.7351315696
 C         -6.6297568863        0.2369867244        0.4568357571
 C         -7.3202835972        1.5686812087        0.1617017818
 H         -8.2120639740        1.3800340578       -0.4397504780
 H         -7.6491578995        1.9850291818        1.1163071694
 C         -6.4725613351        2.6121943627       -0.5722301747
 H         -6.9917847208        3.5681523318       -0.4756835830
 H         -6.4457171216        2.3794718535       -1.6377950266
 C         -5.0326603394        2.7805488773       -0.0701238780
 H         -4.7872096704        3.8441996168       -0.0939932482
 H         -4.9470805791        2.4583309632        0.9678449456
 C         -3.9696608544        2.0568186957       -0.9177144445
 H         -4.3062940632        2.0027494515       -1.9567678254
 H         -3.0482780071        2.6463096532       -0.9011727795
 H         -5.9369275695        0.3618158129        1.2916979169
 H         -7.3882208977       -0.4762730543        0.7831526157
 H         -6.0247571196        0.2324822356       -1.6354509304
 H         -6.1574422882       -1.3809770985       -0.9203402252
 O         -3.9728642337       -1.6069317971       -0.0260006390
 C         -2.6659370616       -1.8532947844        0.3846428064
 O         -2.4634579346       -3.0370620474        0.7072858353
 H          2.0795512799        0.0633676450        0.2027353861
 C          1.8009063384       -0.7373898515       -0.4640052491
 C          0.5709372966       -1.3592015273       -0.3093321332
 C          0.2139505351       -2.3674699437       -1.1982785572
 C          1.0775020966       -2.7425795422       -2.2115913627
 C          2.3173944885       -2.1417537898       -2.3419803826
 C          2.6844184579       -1.1343503403       -1.4578439164
 N          3.9305973186       -0.5021922216       -1.5559528074
 S          4.7607973408       -0.0874427933       -0.1604746922
 O          6.1453436385       -0.0085366197       -0.5728151500
 O          4.4657521706       -1.0001203460        0.9183655029
 C          4.1770911088        1.5479485575        0.2280880129
 C          4.2777886051        2.5240529984       -0.7432745980
 C          3.8317622648        3.8034103257       -0.4545486004
 C          3.2966594041        4.0837495338        0.7937522361
 C          3.2071804822        3.0939085700        1.7600355728
 C          3.6524258803        1.8122447739        1.4775136671
 H          3.5950814022        1.0121749437        2.1993739319
 H          2.7893956430        3.3128629243        2.7297084444
 H          2.9453758631        5.0791072895        1.0156301731
 H          3.8988287696        4.5768636644       -1.2026099402
 H          4.7013457042        2.2680560751       -1.7000783408
 H          4.5433088498       -0.8713121226       -2.2682190244
 H          2.9959206031       -2.4494425645       -3.1231152953
 H          0.7882799352       -3.5242051015       -2.8981348620
 H         -0.7393661905       -2.8604591997       -1.0807661168
 C         -0.3277466761       -0.9434671358        0.8268302557
 H         -0.0154745267        0.0691109663        1.1298257223
 C         -0.1604781801       -1.8443038711        2.0429481580
 C          0.3900618724       -3.2334623668        1.9755974209
 C          1.2050135555       -2.1383854533        2.5921727474
 H          1.3383079342       -2.1369578045        3.6638174839
 H          2.0662194602       -1.7849795193        2.0426850703
 H         -0.0556733293       -3.9806734869        2.6142164329
 H          0.6935517073       -3.6146880029        1.0133634632
 H         -0.9483543385       -1.6807983472        2.7720539682
 O         -1.3573909683        1.4898308404       -0.0652479973
