  62
        -98.94464967
 C         -2.0494567548       -0.4424612956       -0.1484984924
 C         -3.0403938211       -0.7459399105        0.8215444500
 C         -4.2018789714        0.1502098576        0.8705225856
 C         -4.2504162685        1.2060917886        0.0383383593
 C         -5.3913391571        2.1767048843       -0.0515100720
 C         -6.4204473754        1.7301045273       -1.0994298529
 C         -6.8473096618        0.2686811010       -0.9619710325
 H         -7.5963588632        0.0751910897       -1.7328696374
 H         -5.9908687984       -0.3742145815       -1.1775353703
 C         -7.4220982391       -0.0983415003        0.4133063686
 H         -7.7184819785        0.8068216581        0.9446259061
 H         -8.3230712697       -0.6978817025        0.2673608252
 C         -6.4797213677       -0.9186468494        1.2961899247
 H         -7.0562688777       -1.3057661286        2.1405285352
 H         -6.1063860122       -1.7781258320        0.7337394605
 C         -5.2774733664       -0.1604692174        1.8730796059
 H         -5.6196596053        0.7518667114        2.3659870813
 H         -4.8093329746       -0.8020978359        2.6252018445
 H         -7.2965466274        2.3763185705       -1.0199148633
 H         -5.9856106050        1.8680281106       -2.0921323555
 H         -5.8648536668        2.2634004638        0.9245680338
 H         -4.9921362987        3.1509003050       -0.3390197019
 O         -3.2719886280        1.4823794375       -0.8585842735
 C         -2.1543960816        0.6686893169       -0.9851770216
 O         -1.3612138330        1.0492511592       -1.8686255007
 O         -2.9573325561       -1.7272641206        1.6069772656
 C         -0.8422246016       -1.3649610704       -0.2172968060
 C          0.3416799718       -0.6875047293        0.4295257267
 C          0.6611521876       -0.9636030146        1.7551571491
 C          1.7177041011       -0.3218034297        2.3760208655
 C          2.4765888131        0.6090431737        1.6894359903
 C          2.1649369023        0.8916692610        0.3654857496
 C          1.1132846621        0.2361433080       -0.2608181481
 H          0.8637470523        0.4826299162       -1.2810440873
 N          2.9221938728        1.8408472629       -0.3380044042
 S          4.5836103140        1.8274558489       -0.1690143196
 O          4.9552564412        2.5077733886        1.0473987660
 O          5.0962166008        2.4023341974       -1.3929763702
 C          5.0311948252        0.1037539907       -0.0526510519
 C          5.6752910042       -0.3662394460        1.0735348099
 C          5.9905772829       -1.7133537859        1.1527820953
 C          5.6551776633       -2.5629819880        0.1104527179
 C          5.0111925334       -2.0748036260       -1.0163709446
 C          4.6942109207       -0.7290808163       -1.1013378717
 H          4.1974218491       -0.3179798144       -1.9654811658
 H          4.7521412375       -2.7375518574       -1.8262844239
 H          5.8968795549       -3.6121363583        0.1746828598
 H          6.4928521923       -2.0950467826        2.0269991695
 H          5.9155444314        0.3289817898        1.8614263373
 H          2.6348455134        1.9693439161       -1.2964660609
 H          3.2904048955        1.1340180136        2.1627800587
 H          1.9508132928       -0.5439179414        3.4061312600
 H          0.0588335327       -1.6753743706        2.3010909180
 H         -1.1106346838       -2.2301562970        0.4032738981
 C         -0.5513265588       -1.8528448416       -1.6219174820
 C          0.3349643167       -3.0466896162       -1.8078243053
 C         -1.1352021247       -3.1556267616       -2.0765883471
 H         -1.4700379308       -3.2404426819       -3.0996855434
 H         -1.7445292060       -3.7035334155       -1.3726846611
 H          1.0112781577       -3.0594978523       -2.6485162963
 H          0.7240989104       -3.5207612604       -0.9197163341
 H         -0.4918879790       -1.0590531701       -2.3551355628
