  62
        -98.94415109
 C         -2.2013193598       -0.7738749353       -0.0644417631
 C         -2.9043773853       -0.1152420956        0.9716243401
 C         -3.6848067772        1.0598805298        0.5682398593
 C         -3.6593101879        1.4694264072       -0.7134234532
 C         -4.3798031713        2.6653423440       -1.2745334521
 C         -5.8431512258        2.3924185171       -1.6485363975
 C         -6.7983571353        2.2331131609       -0.4650626839
 H         -6.6875981887        3.0845000914        0.2072850976
 H         -7.8132290545        2.2650196741       -0.8663104576
 C         -6.6203587436        0.9268622131        0.3213994803
 H         -6.0518921880        0.2136688323       -0.2799533422
 H         -7.5985708766        0.4786321112        0.5092173535
 C         -5.9311249145        1.0907339007        1.6760893135
 H         -6.5566910617        1.6966167699        2.3353584679
 H         -5.8252042103        0.1013594452        2.1285414900
 C         -4.5379006396        1.7294204567        1.6031014474
 H         -4.6232526312        2.7960099316        1.3956558416
 H         -4.0493114272        1.5993587197        2.5721773266
 H         -5.8825998672        1.4963251332       -2.2720194750
 H         -6.1866737981        3.2342116038       -2.2540851249
 H         -4.3325167428        3.4899541295       -0.5626258270
 H         -3.8414040896        2.9551705705       -2.1794166952
 O         -2.9336704175        0.8342932602       -1.6716345060
 C         -2.2027643507       -0.3091459474       -1.3799928402
 O         -1.6065366952       -0.7993471471       -2.3563402152
 H          0.0628026147        0.1183153348        0.8999900223
 C          0.6617457332       -0.6096286069        0.3653508795
 C          0.0664391019       -1.7924190857       -0.0569507535
 C          0.8507092215       -2.7237809923       -0.7240509960
 C          2.1859682912       -2.4613483933       -0.9789129252
 C          2.7676619745       -1.2743707820       -0.5748654895
 C          1.9970212960       -0.3416496285        0.1075529845
 N          2.5759798735        0.8726506519        0.5165840825
 S          4.0159446981        0.8171908952        1.3792746393
 O          4.1366228964       -0.4127285906        2.1272523607
 O          4.0429353792        2.0427328426        2.1476367553
 C          5.2726659612        0.8942733698        0.1206544958
 C          5.2638168585        1.9734884889       -0.7411268534
 C          6.2380330912        2.0532509722       -1.7232514967
 C          7.2001123447        1.0592875351       -1.8250830116
 C          7.1974439162       -0.0159859369       -0.9498728785
 C          6.2253340227       -0.1019680265        0.0347393035
 H          6.1809411713       -0.9211933681        0.7345924614
 H          7.9465084692       -0.7872173703       -1.0305016054
 H          7.9565713712        1.1238051374       -2.5911857945
 H          6.2433913134        2.8882163131       -2.4053114579
 H          4.5010578458        2.7255708264       -0.6261014409
 H          1.9232778387        1.5046465238        0.9570524265
 H          3.8046680144       -1.0641314533       -0.7789897202
 H          2.7813069270       -3.1915574593       -1.5053785783
 H          0.4161178823       -3.6543727543       -1.0497015530
 C         -1.3911475956       -2.0131557999        0.2669093971
 H         -1.4791952028       -2.1365349583        1.3573608471
 C         -1.9875103387       -3.2300273451       -0.4091077875
 C         -1.8547695806       -4.5850115511        0.2172998465
 C         -3.1812378274       -3.8882784157        0.2130153912
 H         -3.9606831189       -4.2617483009       -0.4340378083
 H         -3.5467400206       -3.4750670184        1.1420445736
 H         -1.7258134284       -5.4411633732       -0.4275004941
 H         -1.3216202995       -4.6528855609        1.1536265991
 H         -1.9626708519       -3.1579745778       -1.4906246439
 O         -2.8729887686       -0.4855124124        2.1772100763
