  62
        -98.93676771
 C         -2.4585658498       -0.4876115303       -0.1591752108
 C         -2.0319203493       -1.5202613398       -1.0257655011
 C         -1.3197011790       -2.6399992498       -0.3994092815
 C         -1.1327529591       -2.6344290602        0.9329235085
 C         -0.4237688988       -3.7110737503        1.7032739182
 C          1.0683325611       -3.4017661498        1.8772343184
 C          1.7853587410       -3.0293564391        0.5792261187
 H          1.4228289107       -2.0561986891        0.2398595990
 H          2.8439743210       -2.9029996788        0.8203880788
 C          1.6396959915       -4.0503657587       -0.5570107817
 H          2.6141561616       -4.1796466782       -1.0324525817
 H          1.3420997118       -5.0190458590       -0.1526620421
 C          0.6613711615       -3.6326993586       -1.6570543317
 H          0.8730221211       -2.6018148284       -1.9556974713
 H          0.8331690818       -4.2710714682       -2.5282685919
 C         -0.8271510385       -3.7378498093       -1.2993385718
 H         -1.4015903385       -3.6437722091       -2.2258312119
 H         -1.0342928882       -4.7184821895       -0.8645753722
 H          1.1680918107       -2.5593773101        2.5655524788
 H          1.5491800313       -4.2738601798        2.3255141882
 H         -0.8857998889       -3.7817607408        2.6899237381
 H         -0.5504275884       -4.6598348901        1.1845876778
 O         -1.5700265195       -1.6330024707        1.7371476689
 C         -2.1948911499       -0.5116728507        1.2113152193
 O         -2.4798041103        0.3576268389        2.0549224096
 O         -2.2461510192       -1.5072858394       -2.2707427311
 C         -3.1200542502        0.7467474897       -0.7654180303
 C         -2.2644389706        1.9323822699       -0.3846546198
 C         -2.6301649211        3.0975688195        0.2754973306
 C         -1.6771371814        4.0493840497        0.6059153910
 C         -0.3387968813        3.8574564903        0.3242163011
 C          0.0408702891        2.7000660407       -0.3452199293
 C         -0.9208874005        1.7831510605       -0.7234263497
 H         -0.6043034602        0.8945058208       -1.2512180001
 N          1.3888111293        2.4117114212       -0.6397041793
 S          1.8347191698        0.8034106713       -0.3255114699
 O          1.5918129802        0.0178888716       -1.5096590602
 O          1.2091229898        0.3554502006        0.8966670099
 C          3.5935001597        0.9807541718       -0.0880741597
 C          4.4205162698        0.9905574825       -1.1951428296
 C          5.7832800397        1.1634956129       -1.0113113894
 C          6.2931237396        1.3238789726        0.2685932807
 C          5.4509877395        1.3086489819        1.3704312806
 C          4.0869848995        1.1372068515        1.1933336504
 H          3.3939498295        1.1075005009        2.0191602504
 H          5.8498649493        1.4285385517        2.3647803707
 H          7.3540621095        1.4574409729        0.4090446609
 H          6.4412133098        1.1714076535       -1.8651749193
 H          3.9780126199        0.8519772527       -2.1677681797
 H          2.0264772190        3.0576976613       -0.1926941290
 H          0.4017253084        4.5836330004        0.6234213514
 H         -1.9868067118        4.9453448194        1.1228441414
 H         -3.6481998012        3.2770607890        0.5694200206
 H         -3.0011271700        0.6126358002       -1.8550192904
 C         -4.6163012702        0.6985220791       -0.5046306605
 C         -5.3035733904        1.2075357884        0.7231707196
 C         -5.5536373706        1.8648419888       -0.6026818501
 H         -6.5110507705        1.6959260486       -1.0733225503
 H         -5.1448507809        2.8425485690       -0.7968149997
 H         -6.0882892503        0.5958731579        1.1448027093
 H         -4.7011922007        1.6972778283        1.4702757999
 H         -5.0025731298       -0.2408996509       -0.8959465209
