  62
        -98.93706451
 C         -2.4439992025       -1.4618660603        0.1170897856
 C         -2.5886541199       -0.4510955743       -0.8630204840
 C         -3.6211948294        0.5659682922       -0.5987773123
 C         -4.3458736699        0.4970926152        0.5318631571
 C         -5.3706673185        1.5004280212        0.9785035836
 C         -4.6712172075        2.7480922650        1.5548492881
 C         -4.8876150942        4.0243193563        0.7413314872
 H         -5.8961947329        4.3983540636        0.9293341104
 H         -4.1836682636        4.7718707693        1.1133405573
 C         -4.7142465897        3.8874141238       -0.7743651333
 H         -5.6150885091        3.4517939546       -1.2091478259
 H         -4.6316269005        4.8989945174       -1.1774240506
 C         -3.5012447441        3.0721138045       -1.2414381131
 H         -2.7207916438        3.0683669765       -0.4793398413
 H         -3.0797862644        3.5642561566       -2.1206888776
 C         -3.8232974194        1.6222768858       -1.6502156329
 H         -4.8478948518        1.5688639916       -2.0285837342
 H         -3.1556221357        1.3355688377       -2.4680171146
 H         -5.0251919857        2.9270450432        2.5712258035
 H         -3.6014786412        2.5391006567        1.6280326491
 H         -6.0093299313        1.7721395527        0.1410346998
 H         -5.9815141683        1.0206116743        1.7433967805
 O         -4.1692845748       -0.4799138501        1.4578169760
 C         -3.2253584158       -1.4739832407        1.2772766748
 O         -3.1798722626       -2.3074036889        2.2035479230
 H          0.2063751966       -1.0130107045       -1.4794403688
 C          0.6548520630       -1.2859446428       -0.5362332658
 C         -0.0515448095       -2.0917098738        0.3449093840
 C          0.5218380493       -2.3938773261        1.5752190504
 C          1.7729624583       -1.9059484473        1.9080686824
 C          2.4758673489       -1.1059429275        1.0245914304
 C          1.9042954184       -0.7848787334       -0.1993786102
 N          2.6031355328        0.0362397777       -1.1023052166
 S          3.2433962266        1.4743114215       -0.5182297208
 O          2.4883508585        1.9770198381        0.6070847468
 O          3.3399702104        2.3452174595       -1.6693889932
 C          4.8864170231        1.0198937663       -0.0011317759
 C          5.7026182587        0.3836517346       -0.9159790215
 C          6.9859502606        0.0274328868       -0.5337797410
 C          7.4306588118        0.3151236113        0.7481667765
 C          6.6007464109        0.9582010916        1.6535854252
 C          5.3150307852        1.3159045350        1.2779085698
 H          4.6322584342        1.8112219619        1.9500090878
 H          6.9481140358        1.1814297862        2.6495830082
 H          8.4298556634        0.0363588952        1.0435146485
 H          7.6340589159       -0.4730558465       -1.2350646786
 H          5.3195651835        0.1814096012       -1.9021902647
 H          2.0967948691        0.1991632712       -1.9614827866
 H          3.4483909740       -0.7182439372        1.2806689356
 H          2.2057845724       -2.1500180163        2.8663063842
 H         -0.0317291569       -3.0010010578        2.2772079092
 C         -1.4333019591       -2.5947661136        0.0010441702
 H         -1.7225843451       -3.3234645075        0.7696893242
 C         -1.4725699634       -3.2838204361       -1.3486309326
 C         -0.8806039951       -4.6536657280       -1.4791860206
 C         -2.3668929170       -4.4704866772       -1.5368401947
 H         -2.8676075919       -4.5918446326       -2.4857084050
 H         -2.9549965163       -4.7925511010       -0.6896185326
 H         -0.4599831642       -5.1014819241       -0.5915839829
 H         -0.3576198981       -4.9040567039       -2.3892715720
 H         -1.3696395368       -2.6070706438       -2.1861212693
 O         -1.9071639758       -0.3827191218       -1.9219204508
