  62
        -98.93876729
 C         -1.8978155134       -0.4265893302       -0.5256270787
 C         -2.9641073379       -1.2167236405       -0.0406268381
 C         -4.3195603737       -0.6401260544       -0.1312982192
 C         -4.4643425672        0.5872225195       -0.6650295269
 C         -5.7289119631        1.3884906193       -0.8259322887
 C         -6.2103542310        2.0087387733        0.4957983554
 C         -6.1559537345        1.0748055058        1.7019679885
 H         -5.1318153040        0.7214311518        1.8347011134
 H         -6.4135487823        1.6616203935        2.5876815130
 C         -7.1032238367       -0.1211673491        1.6425691461
 H         -8.1299279685        0.2396354289        1.5486526382
 H         -7.0223501595       -0.6466182310        2.5975893000
 C         -6.8385203194       -1.1295097638        0.5225829543
 H         -7.2043275387       -0.7607927687       -0.4319045660
 H         -7.4190734563       -2.0282849773        0.7505431468
 C         -5.3845219027       -1.5727254772        0.3942705915
 H         -5.0277068516       -1.9179718635        1.3712803988
 H         -5.3462291283       -2.4566679231       -0.2538738321
 H         -5.5754515513        2.8709822031        0.7140389108
 H         -7.2311589799        2.3684645056        0.3561018067
 H         -5.5008319178        2.1956734418       -1.5255809314
 H         -6.5055512044        0.7742538369       -1.2718548561
 O         -3.4033203432        1.3154876666       -1.1180871462
 C         -2.1052606958        0.8415440198       -1.0659870489
 O         -1.2512809673        1.6250686154       -1.5229855314
 O         -2.7962496292       -2.3618863103        0.4600613190
 C         -0.4854286258       -0.9809955395       -0.4606391012
 C          0.3802880863       -0.0628177635        0.3646894121
 C          0.0072058198        0.1903541144        1.6834190308
 C          0.7423525291        1.0506179261        2.4738885472
 C          1.8734387773        1.6700194898        1.9700866155
 C          2.2574975387        1.4222873102        0.6584972990
 C          1.5161909920        0.5538094021       -0.1335882556
 H          1.8284369267        0.3971781078       -1.1517490063
 N          3.3888248022        2.0552478871        0.1192745139
 S          4.5037371746        1.1993818612       -0.7831367037
 O          5.6581781705        2.0680967736       -0.8478658610
 O          3.9358967982        0.7975137787       -2.0438526032
 C          4.8766301209       -0.2283152064        0.2181830286
 C          5.7908567194       -0.0867345726        1.2443047584
 C          6.0427478909       -1.1681492451        2.0723782885
 C          5.3726282599       -2.3647890147        1.8666646175
 C          4.4578955973       -2.4902586098        0.8327392849
 C          4.2040079875       -1.4129286423       -0.0017889055
 H          3.5029298560       -1.4739393099       -0.8174693349
 H          3.9390633198       -3.4219793310        0.6726908716
 H          5.5658062205       -3.2058471323        2.5136889639
 H          6.7570872438       -1.0753381704        2.8744861532
 H          6.2975456342        0.8574229300        1.3622955294
 H          3.8546458465        2.6866466439        0.7544090811
 H          2.4454691157        2.3503960553        2.5825069690
 H          0.4360207726        1.2415110776        3.4913009189
 H         -0.8789481319       -0.2912754561        2.0739152923
 H         -0.5760558748       -1.9403177209        0.0698241009
 C          0.0444558044       -1.2446310153       -1.8533532789
 C          1.0759597293       -2.3086058629       -2.0753285062
 C         -0.3316261823       -2.5194988704       -2.5447448259
 H         -0.5351394983       -2.4899202414       -3.6046851832
 H         -0.9536555190       -3.2141737794       -1.9993254298
 H          1.8452435636       -2.1336528247       -2.8132257655
 H          1.4034264526       -2.8704844531       -1.2134310101
 H          0.0959050829       -0.3485340912       -2.4622264742
