  62
        -98.92844788
 C         -2.2388212524       -1.4505702709       -0.0017617049
 C         -2.2123760091       -0.3645027076       -0.9089059676
 C         -2.8374052902        0.8959320547       -0.4453051670
 C         -3.4018710671        0.9475392393        0.7727719494
 C         -4.0787917305        2.1072934204        1.4595627547
 C         -5.0417924255        2.9484003931        0.6078852040
 C         -4.5087581574        4.3466101990        0.2916030196
 H         -5.3549388618        5.0042258744        0.0807155501
 H         -4.0058903718        4.7352835233        1.1794055550
 C         -3.5569182875        4.4230468398       -0.9008431410
 H         -4.1220088009        4.2786807227       -1.8242669161
 H         -3.1408230171        5.4328108674       -0.9286058765
 C         -2.4020957597        3.4190723511       -0.8842954086
 H         -1.6035875251        3.8135981369       -1.5168515630
 H         -1.9850052547        3.3215103320        0.1175405595
 C         -2.7813231837        2.0336470788       -1.4281510228
 H         -3.7353779907        2.0884771486       -1.9615673719
 H         -2.0392362388        1.7188569153       -2.1690302331
 H         -5.2822736392        2.4174648484       -0.3117753411
 H         -5.9706095501        3.0611297992        1.1693516889
 H         -4.6176474689        1.6613445047        2.2987189668
 H         -3.3064739734        2.7492339213        1.8907350781
 O         -3.4105138976       -0.1289404769        1.6119236242
 C         -2.8202878715       -1.3263265859        1.2616109806
 O         -2.8894571328       -2.2080988193        2.1424269601
 O         -1.7087330156       -0.4133506981       -2.0606721727
 C         -1.5846088472       -2.7991078746       -0.2573261606
 C         -0.2281286360       -2.8492497741        0.4018613615
 C          0.2009876694       -3.9926553854        1.0656922932
 C          1.4539216509       -4.0359839131        1.6509642975
 C          2.2984592434       -2.9433413679        1.5862603251
 C          1.8706956855       -1.7863286745        0.9420934540
 C          0.6160657300       -1.7493191123        0.3519632844
 H          0.2969090651       -0.8499245923       -0.1531145833
 N          2.6874334511       -0.6462668918        0.9190715694
 S          2.4906608747        0.5119262904       -0.2903235335
 O          1.3492590456        1.3289114749        0.0342454761
 O          2.5041488388       -0.1189916815       -1.5904718776
 C          3.9873092875        1.4521581158       -0.0526468643
 C          5.0784050011        1.2130073762       -0.8663749266
 C          6.2456223279        1.9291597640       -0.6511643457
 C          6.3027362858        2.8651125889        0.3704280280
 C          5.1988927831        3.0956618839        1.1782339686
 C          4.0286988012        2.3839773541        0.9673595500
 H          3.1427117020        2.5347990526        1.5620177125
 H          5.2453510993        3.8266018746        1.9692961909
 H          7.2119863355        3.4209332956        0.5362610658
 H          7.1036888256        1.7549034469       -1.2800515252
 H          4.9839298818        0.4819597702       -1.6531892249
 H          3.6595117451       -0.8431403986        1.1117688572
 H          3.2755909920       -2.9753508322        2.0431627053
 H          1.7769500199       -4.9301143807        2.1620337196
 H         -0.4608718479       -4.8435030307        1.1334270827
 H         -2.2213073173       -3.5394139983        0.2558627018
 C         -1.5272404943       -3.1957371617       -1.7247936931
 C         -0.2973854161       -3.0516785739       -2.5642263859
 C         -0.7648601619       -4.4143437951       -2.1553238284
 H         -1.2033065960       -5.0546248877       -2.9057100455
 H         -0.1873193151       -4.9361959215       -1.4077706968
 H         -0.4274853197       -2.7356479604       -3.5880032831
 H          0.5894146916       -2.6418516932       -2.1039768269
 H         -2.4715342996       -3.0104739778       -2.2262153768
