  62
        -98.94713829
 C         -1.6354359751       -1.5266092840       -0.2446900224
 C         -2.8306155536       -1.2247222131        0.4566330311
 C         -3.6177002313       -0.0978054279       -0.0592735610
 C         -3.1742015767        0.5754411472       -1.1364012967
 C         -3.8490832515        1.7748983685       -1.7356240624
 C         -3.3285377868        3.0838659748       -1.1244351946
 C         -3.2759434148        3.0758690589        0.4031353237
 H         -2.5420550982        2.3370883651        0.7334918643
 H         -2.9153500054        4.0564275299        0.7212670860
 C         -4.6237845372        2.7901439675        1.0803022404
 H         -5.4370238451        2.9571508348        0.3728718550
 H         -4.7597154335        3.4966225343        1.9018125744
 C         -4.7523752143        1.3869104915        1.6754453353
 H         -3.8897264081        1.1779299988        2.3130556189
 H         -5.6413374050        1.3677659937        2.3115926465
 C         -4.8908199670        0.2439937931        0.6617549782
 H         -5.1748165773       -0.6570615386        1.2131765558
 H         -5.6870326553        0.4759648760       -0.0485736786
 H         -3.9704095695        3.8991041243       -1.4633908330
 H         -2.3210845469        3.2691910593       -1.5030826167
 H         -3.6500784792        1.7807469128       -2.8087984158
 H         -4.9229653757        1.6924930959       -1.5784402937
 O         -2.0271102536        0.2545876922       -1.7856692566
 C         -1.2257058609       -0.7966609917       -1.3601277841
 O         -0.2075578158       -0.9654854058       -2.0576779249
 H          1.6694571519       -2.2764345339       -0.9165361461
 C          1.6323722998       -1.8697380749        0.0812503111
 C          0.4853909495       -2.0165922202        0.8454753044
 C          0.4582457126       -1.4588970610        2.1210760231
 C          1.5513310499       -0.7731146895        2.6169603548
 C          2.6857857021       -0.6058971030        1.8413778805
 C          2.7155466922       -1.1481571120        0.5637427430
 N          3.8388936141       -0.9249992370       -0.2543941282
 S          4.3748733337        0.6598019050       -0.3432305074
 O          4.9399058581        0.8040528879       -1.6671015076
 O          5.2836991018        0.9151722893        0.7482251945
 C          2.9280820035        1.6922135396       -0.1588124856
 C          2.9343737663        2.6935068107        0.7917521945
 C          1.8117222629        3.4923578024        0.9356218356
 C          0.7025029839        3.2747223948        0.1329985913
 C          0.7131580682        2.2666392498       -0.8178155016
 C          1.8345242364        1.4676893974       -0.9708995047
 H          1.8400347712        0.6727222584       -1.6999188334
 H         -0.1481137541        2.0784657081       -1.4397459007
 H         -0.1760331162        3.8900893706        0.2489566486
 H          1.8021471754        4.2772461416        1.6746285951
 H          3.8142378716        2.8211362315        1.4013796434
 H          3.7402355971       -1.3159823759       -1.1806213327
 H          3.5417506491       -0.0574514127        2.2004431189
 H          1.5177154125       -0.3530289637        3.6105387994
 H         -0.4405003478       -1.5577577641        2.7135381076
 C         -0.7632330282       -2.6527187165        0.2884971333
 H         -1.3293639933       -3.0917413809        1.1204497552
 C         -0.5037122641       -3.7270986106       -0.7455870559
 C          0.0637071096       -5.0427796741       -0.3059570230
 C         -1.3622217347       -4.9547831187       -0.7577267152
 H         -1.6297383344       -5.3861506614       -1.7107590494
 H         -2.1404614321       -5.0285953648       -0.0124141129
 H          0.2547285517       -5.1741417347        0.7483646711
 H          0.7772860253       -5.5381869405       -0.9465602898
 H         -0.1922207227       -3.3371271053       -1.7068091838
 O         -3.2203793399       -1.8706093988        1.4650874035
