  62
        -98.94048349
 C          1.8004344290        0.8637544705       -0.3554722598
 C          3.1353938790        1.3335366905       -0.4476522401
 C          4.1219521591        0.6602265506        0.4073119499
 C          3.7093750392       -0.3009499192        1.2532493901
 C          4.6109164294       -1.1071011291        2.1415318202
 C          5.0794597893       -2.3894093992        1.4394470803
 C          5.6269726591       -2.1579243994        0.0309680902
 H          5.9548907290       -3.1260329095       -0.3536252897
 H          4.8161719790       -1.8140026595       -0.6153651898
 C          6.7899895691       -1.1586220094       -0.0419049901
 H          7.5667752690       -1.5717106795       -0.6888645501
 H          7.2291750892       -1.0283255493        0.9478500198
 C          6.4161523790        0.2103105405       -0.6138066503
 H          5.8941425389        0.0799410903       -1.5653464302
 H          7.3405173590        0.7559240204       -0.8212515205
 C          5.5543000291        1.0993000906        0.2917695197
 H          6.0154189792        1.1758349008        1.2787129196
 H          5.5263987691        2.0987219606       -0.1525736605
 H          5.8467152094       -2.8600756791        2.0568794903
 H          4.2321862393       -3.0754355692        1.3692073805
 H          5.4693344594       -0.5013022390        2.4254256999
 H          4.0555405095       -1.3774831189        3.0412463103
 O          2.4121668693       -0.6801500792        1.3619433004
 C          1.4237668292       -0.1187596893        0.5613397304
 O          0.2869584092       -0.5749382793        0.7748934206
 H         -1.8863563911        0.8548684303       -1.7159367193
 C         -1.7460152110        1.4548315104       -0.8302798195
 C         -0.4744805410        1.8635213205       -0.4599755597
 C         -0.3360398508        2.6252425207        0.6981495202
 C         -1.4322326107        2.9439631208        1.4750689503
 C         -2.6998481608        2.5273226407        1.1056567405
 C         -2.8519020309        1.7811757705       -0.0533100994
 N         -4.1473690010        1.3741519905       -0.4395003691
 S         -4.9412183909        0.2374764406        0.5001075511
 O         -6.2975366809        0.1942235005        0.0010202313
 O         -4.7809799207        0.5841908009        1.8884359511
 C         -4.1368305709       -1.3143871994        0.1382405213
 C         -4.8170003710       -2.2696390095       -0.5927066785
 C         -4.1742066010       -3.4546358396       -0.9114324584
 C         -2.8635136310       -3.6595851695       -0.5059183985
 C         -2.1947627309       -2.6888855094        0.2229601513
 C         -2.8340864508       -1.5042710294        0.5525798412
 H         -2.3156760108       -0.7404605093        1.1091654610
 H         -1.1707016508       -2.8224136594        0.5331784912
 H         -2.3593335210       -4.5789517596       -0.7600010884
 H         -4.6931668011       -4.2117465597       -1.4772211282
 H         -5.8325729610       -2.0647510096       -0.8908858084
 H         -4.2064622511        1.0936212003       -1.4088950191
 H         -3.5647099807        2.7526331208        1.7075765106
 H         -1.3021130106        3.5249254809        2.3759485002
 H          0.6527747592        2.9522839707        0.9914635300
 C          0.7635732989        1.5191391904       -1.2497733498
 H          1.2361533589        2.4655575003       -1.5629366800
 C          0.4689454888        0.7398357302       -2.5240320896
 C          1.4456006787       -0.2572345199       -3.0699672396
 C          0.1410237288       -0.7227981498       -2.5002008293
 H         -0.6113270713       -1.0940161500       -3.1810732692
 H          0.1429407789       -1.2152824197       -1.5407736993
 H          2.3465573588       -0.4404276898       -2.5026106797
 H          1.5885309586       -0.3004525201       -4.1393349596
 H         -0.0532945613        1.3449366300       -3.2590421197
 O          3.4829765089        2.2763681704       -1.2079853403
