  62
        -98.94032699
 C         -1.7858313073       -0.6792251299        0.9230324127
 C         -2.0287194366       -0.3022247735       -0.4210696379
 C         -3.4245680852       -0.4173534640       -0.8746234241
 C         -4.3655581364       -0.8641686793       -0.0243486686
 C         -5.8279235423       -0.9775580844       -0.3418242135
 C         -6.5782990844        0.3060357031        0.0400717513
 C         -5.9170156191        1.5844742666       -0.4752585072
 H         -6.5496730766        2.4219578234       -0.1730048674
 H         -4.9536078697        1.7142097113        0.0233980865
 C         -5.7083243841        1.6239374996       -1.9955863114
 H         -6.0124616415        2.6057814128       -2.3645329742
 H         -6.3498270876        0.8846449459       -2.4766211225
 C         -4.2614959056        1.4084768965       -2.4440806786
 H         -3.6017214343        2.0843318555       -1.8937741072
 H         -4.1914495468        1.6736171429       -3.5023838818
 C         -3.7208197813       -0.0190070532       -2.2930484755
 H         -4.4112541264       -0.7259035003       -2.7574562772
 H         -2.7659120890       -0.0690577546       -2.8241772288
 H         -7.5966401177        0.2392260672       -0.3471249803
 H         -6.6324470108        0.3642218581        1.1297479409
 H         -5.9498985961       -1.1802598493       -1.4039754696
 H         -6.2404884726       -1.8117623112        0.2282022200
 O         -4.0943757578       -1.2173731878        1.2584665099
 C         -2.8111351713       -1.1093548719        1.7689987615
 O         -2.7126127430       -1.4174905888        2.9736907033
 H          2.0289479894       -0.0705650229        0.3119015840
 C          1.4808830755        0.8233220739        0.5554132956
 C          0.2365307183        0.7409223972        1.1575263940
 C         -0.4479070713        1.9227052485        1.4336589511
 C          0.0908059414        3.1479152491        1.0961040744
 C          1.3392218795        3.2251536456        0.5024365658
 C          2.0361709065        2.0548529420        0.2358986065
 N          3.3044647316        2.0866742532       -0.3651450860
 S          4.5103739492        1.1023289221        0.2500940167
 O          4.3599436762        0.9082846820        1.6740405417
 O          5.7457921473        1.7246525884       -0.1775909935
 C          4.3298920597       -0.4503098726       -0.6015461659
 C          4.4125390094       -1.6259578922        0.1180199574
 C          4.3166498639       -2.8335126590       -0.5556927501
 C          4.1415591418       -2.8434461659       -1.9311885743
 C          4.0612904178       -1.6536494901       -2.6389821343
 C          4.1595742897       -0.4433483542       -1.9716538272
 H          4.1023781941        0.4994763261       -2.4891003788
 H          3.9212682508       -1.6664176255       -3.7078307418
 H          4.0639135176       -3.7841529345       -2.4533192184
 H          4.3764632823       -3.7595220813       -0.0058802260
 H          4.5393637424       -1.5712295502        1.1876858884
 H          3.6516612273        3.0112373767       -0.5751877953
 H          1.7659216716        4.1826421406        0.2438465380
 H         -0.4592937131        4.0535374725        1.3048105709
 H         -1.4193793980        1.8640125967        1.9071074268
 C         -0.4018946233       -0.5720323562        1.5399452458
 H         -0.5769335469       -0.5493426690        2.6291191546
 C          0.4937359662       -1.7725414719        1.2705481192
 C         -0.0858669530       -3.1306813692        1.0139272706
 C          0.6064830621       -2.3912763245       -0.0892975261
 H          1.5756588461       -2.7407198584       -0.4138771481
 H          0.0094654409       -1.9637345621       -0.8785917589
 H         -1.1622245048       -3.2180141044        0.9795097281
 H          0.4064662995       -3.9860784180        1.4514136276
 H          1.3982592051       -1.7435522642        1.8716207396
 O         -1.1404596811        0.1101111197       -1.2096942519
