  62
        -98.94581116
 C          2.4893434191        1.1073832240       -0.0504789680
 C          3.0577080868        0.1914527800        0.8665917553
 C          3.5136104942       -1.0830288611        0.3032950617
 C          3.3743522343       -1.3172835412       -1.0144377816
 C          3.7935672885       -2.5670782738       -1.7394872616
 C          2.7500393985       -3.6915235256       -1.6848457293
 C          2.6155675947       -4.3877618744       -0.3299757725
 H          2.0171094646       -5.2867389030       -0.4898455067
 H          3.6000946671       -4.7066829255        0.0141167376
 C          1.9404624528       -3.5363690131        0.7548676613
 H          1.4020526850       -2.7074698616        0.2860643844
 H          1.1909922201       -4.1370575208        1.2765721160
 C          2.8979428319       -2.9837164378        1.8117221827
 H          3.3331841079       -3.8108847061        2.3768261890
 H          2.3207940438       -2.3688763726        2.5076988650
 C          4.0365699688       -2.1226354278        1.2482472008
 H          4.7742013760       -2.7527047155        0.7525481495
 H          4.5181883797       -1.6048482320        2.0813508400
 H          3.0366368176       -4.4400782279       -2.4271214878
 H          1.7796584449       -3.2838037542       -1.9799810654
 H          3.9413706202       -2.2858826494       -2.7842408430
 H          4.7408224336       -2.9268112865       -1.3371556506
 O          2.8294777891       -0.4090166150       -1.8651284346
 C          2.3334285846        0.8022711026       -1.4032420938
 O          1.8036625905        1.5049168240       -2.2838003126
 O          3.1687255647        0.4242740438        2.1016991183
 C          1.9175767482        2.4111924313        0.4827576210
 C          0.4150671988        2.3324181352        0.3655046710
 C         -0.3596091814        3.2171134528       -0.3710331855
 C         -1.7262268098        3.0219964122       -0.4846541236
 C         -2.3463045743        1.9491728291        0.1294048346
 C         -1.5802330569        1.0641491927        0.8774057424
 C         -0.2167825856        1.2662598895        0.9961784442
 H          0.3795113518        0.5687144555        1.5726828216
 N         -2.2033814458       -0.0482207397        1.4924208550
 S         -2.7083802030       -1.2340252996        0.4042427302
 O         -2.8101779767       -2.4504911138        1.1814481174
 O         -1.8473698369       -1.2855536633       -0.7568048621
 C         -4.3396718089       -0.6935130370       -0.0558477572
 C         -4.6064215773       -0.3386619803       -1.3632222906
 C         -5.8833501594        0.0897293849       -1.6924244900
 C         -6.8632153286        0.1560188258       -0.7135530759
 C         -6.5784916201       -0.2051710538        0.5952335551
 C         -5.3049752144       -0.6357642427        0.9307813780
 H         -5.0397406169       -0.9301390708        1.9324265438
 H         -7.3431017630       -0.1513583315        1.3532734540
 H         -7.8548463429        0.4919157846       -0.9726731324
 H         -6.1060597354        0.3715899161       -2.7089862793
 H         -3.8095250848       -0.3990909498       -2.0873783309
 H         -1.6106217271       -0.4848006054        2.1861567835
 H         -3.4085443083        1.7917548993        0.0365465501
 H         -2.3156553845        3.7134353999       -1.0670915360
 H          0.1085206597        4.0491665786       -0.8703635120
 H          2.1767393635        2.4265817768        1.5515908770
 C          2.5328572909        3.6182423473       -0.1880240195
 C          2.4972608827        4.9489361313        0.5008305771
 C          3.7904942913        4.2022053455        0.3797842909
 H          4.5400036445        4.5720060641       -0.3035326048
 H          4.1995031227        3.7378377125        1.2652984924
 H          2.3604645608        5.8361560660       -0.0982680978
 H          2.0278008424        4.9950323782        1.4717417185
 H          2.4361305274        3.5949256037       -1.2669110831
