  62
        -98.94486043
 C         -1.9272020288       -0.2042555438        0.0676934644
 C         -2.9630277876       -1.0543415710        0.5245426115
 C         -4.2665549059       -0.4163734686        0.7490598883
 C         -4.3940934292        0.9072337820        0.5428822197
 C         -5.6755174465        1.6759799981        0.6816189909
 C         -6.4326071771        1.7357370761       -0.6524625083
 C         -6.5861208164        0.3771000173       -1.3363459729
 H         -7.1623096783        0.5365377727       -2.2503898248
 H         -5.5998973361        0.0165337451       -1.6377459667
 C         -7.2756888106       -0.6916874632       -0.4768353620
 H         -8.0127638450       -1.2127562972       -1.0914594990
 H         -7.8158041138       -0.2159017595        0.3424510959
 C         -6.3338694470       -1.7569049315        0.0876863470
 H         -5.7240004854       -2.1705721420       -0.7194140257
 H         -6.9434404153       -2.5714643727        0.4877985586
 C         -5.3971014072       -1.2927983053        1.2102259672
 H         -5.9762961033       -0.7965627644        1.9914926469
 H         -4.9293200316       -2.1827174761        1.6413341202
 H         -7.4184979600        2.1676597420       -0.4710793605
 H         -5.8896131214        2.4001090664       -1.3287988053
 H         -6.2953804500        1.2059933515        1.4426093426
 H         -5.4342347305        2.6920813939        0.9982236315
 O         -3.3687400754        1.6966937919        0.1328220673
 C         -2.1138358696        1.1640928612       -0.1280213936
 O         -1.2748900571        1.9985195817       -0.5163670235
 H          1.6870054798        0.6738086004       -0.9108376620
 C          1.5460663192        0.5721383633        0.1514078837
 C          0.4714853768       -0.1375298758        0.6613715448
 C          0.3206552386       -0.2191095486        2.0444452480
 C          1.2131728699        0.4070847528        2.8910577233
 C          2.2827899161        1.1205050631        2.3772999868
 C          2.4450634217        1.2060416930        1.0005030876
 N          3.5091577469        1.9426192230        0.4557664961
 S          4.4251488151        1.3295295451       -0.7992225611
 O          5.5936699880        2.1805906854       -0.8422597918
 O          3.6458105490        1.2539727223       -2.0076510002
 C          4.8864787941       -0.3029911167       -0.2492756962
 C          4.1160721992       -1.3897681217       -0.6096710603
 C          4.4500077628       -2.6396553392       -0.1118346257
 C          5.5404260002       -2.7804487031        0.7323626210
 C          6.3069608888       -1.6787793812        1.0816651702
 C          5.9758769627       -0.4263329533        0.5914238837
 H          6.5501313732        0.4543374139        0.8295563732
 H          7.1575839071       -1.7922077888        1.7342486030
 H          5.7953050807       -3.7551992441        1.1174020735
 H          3.8561711324       -3.4974482823       -0.3846571728
 H          3.2783947483       -1.2432857854       -1.2710295435
 H          4.0999230869        2.3893297132        1.1417114942
 H          2.9769954094        1.6194120366        3.0363621236
 H          1.0788150449        0.3399793397        3.9601100579
 H         -0.5183954874       -0.7724702839        2.4437750107
 C         -0.5604226783       -0.8059971998       -0.2113959887
 H         -0.6412439682       -1.8593463809        0.0946361248
 C         -0.2490300598       -0.7532113215       -1.6914372739
 C          0.6705648405       -1.7669089127       -2.3014607381
 C         -0.7996168690       -1.8199214309       -2.5879861596
 H         -1.1469736609       -1.5382426611       -3.5707759331
 H         -1.3823387378       -2.6038373358       -2.1264690065
 H          1.0792103044       -2.5236938004       -1.6486938744
 H          1.3380547591       -1.4484348109       -3.0887986120
 H         -0.2259119557        0.2578778329       -2.0831799059
 O         -2.8031939825       -2.2863525789        0.7367175842
