  62
        -98.94119946
 C         -2.7681721524       -0.7438128702       -0.2859532180
 C         -2.1765846742        0.2289348357       -1.1285434899
 C         -2.5897224012        1.6182795867       -0.8915651095
 C         -3.5179286653        1.8991666424        0.0396518958
 C         -4.0695668941        3.2609231684        0.3638133521
 C         -3.2172759316        4.0638524348        1.3558127671
 C         -1.8976905264        4.5953945596        0.7952277714
 H         -2.0890324265        5.1387014470       -0.1306773469
 H         -1.5056971617        5.3118398330        1.5197267112
 C         -0.8375433189        3.5130086939        0.5498406872
 H         -1.1026189409        2.6041438484        1.0960299269
 H          0.1265249970        3.8382710079        0.9476210311
 C         -0.6165397339        3.1533924217       -0.9191548710
 H          0.1179069751        2.3437063172       -0.9488315128
 H         -0.1977185605        4.0128328913       -1.4479704913
 C         -1.8812250510        2.6941622715       -1.6574154778
 H         -2.5438672463        3.5420339839       -1.8295337299
 H         -1.5848126569        2.2771419532       -2.6228690263
 H         -3.0144178535        3.4389892535        2.2288413805
 H         -3.8171923241        4.9146290683        1.6870473057
 H         -5.0533750925        3.0983618258        0.8093129243
 H         -4.1937727384        3.8329258054       -0.5560577883
 O         -4.0992512000        0.9326367931        0.7984610975
 C         -3.7110008106       -0.3905523364        0.6854046640
 O         -4.2851828877       -1.1576720218        1.4846376836
 O         -1.3484163531       -0.0200541969       -2.0458924479
 C         -2.4009832063       -2.2212465499       -0.3286840557
 C         -1.0796196633       -2.4265517896        0.3735325735
 C         -1.0130107830       -3.0791924347        1.5989672572
 C          0.1928612973       -3.2042431992        2.2675147687
 C          1.3543672169       -2.6724701589        1.7353769967
 C          1.2945708932       -2.0138341512        0.5150115099
 C          0.0908841382       -1.9100626796       -0.1638749800
 H          0.0522563193       -1.3792229141       -1.1034788378
 N          2.4688676468       -1.4271897284       -0.0246218662
 S          2.9540480211       -0.0445626044        0.8271265950
 O          3.2866938584       -0.4395622040        2.1726935647
 O          1.9631763435        1.0017506162        0.6972342135
 C          4.4367295409        0.3960260124       -0.0577210007
 C          4.4093973810        1.4444574375       -0.9563490672
 C          5.5647139151        1.7574313116       -1.6557284791
 C          6.7187118295        1.0175060445       -1.4478269273
 C          6.7293929291       -0.0338683788       -0.5429573145
 C          5.5785989443       -0.3505576803        0.1605580793
 H          5.5411706556       -1.1522756637        0.8790259102
 H          7.6292542477       -0.6057773243       -0.3838835096
 H          7.6158453191        1.2632405181       -1.9937602729
 H          5.5589292501        2.5751865336       -2.3583909258
 H          3.4905107175        1.9953315522       -1.0815772891
 H          2.3016671932       -1.1385944862       -0.9820523804
 H          2.2928396291       -2.7345348379        2.2611265764
 H          0.2269741196       -3.7131176662        3.2191272606
 H         -1.9206525408       -3.4690150038        2.0375046631
 H         -3.1753765002       -2.7366301832        0.2547177921
 C         -2.3935331133       -2.7973027836       -1.7307643642
 C         -2.5058816855       -4.2811251535       -1.9036035864
 C         -3.6518628504       -3.3930175460       -2.2829732278
 H         -3.8720092396       -3.2499822954       -3.3301733780
 H         -4.5267372381       -3.3886066980       -1.6489420931
 H         -1.9375912760       -4.7521315847       -2.6907559870
 H         -2.6045008121       -4.8814719501       -1.0117940235
 H         -1.7599145262       -2.2545953738       -2.4191130878
