  62
        -98.94360228
 C          1.5554509206        1.4574137384        0.0343050500
 C          2.1132245207        0.5421407683        0.9593254098
 C          3.1231622304       -0.3751080319        0.4204369696
 C          3.4647444900       -0.3033521920       -0.8788332605
 C          4.4723239696       -1.1770567222       -1.5756703408
 C          3.9058580892       -2.5264018021       -2.0401426406
 C          3.6265305693       -3.5375947820       -0.9268161905
 H          3.4444899990       -4.5001945120       -1.4090405104
 H          4.5169279295       -3.6480218922       -0.3071829608
 C          2.4200583197       -3.1940190118       -0.0410970302
 H          1.8050568195       -4.0861887817        0.0965610300
 H          1.7962572497       -2.4526269617       -0.5468496300
 C          2.7832067902       -2.6705867818        1.3486521397
 H          3.2865697202       -3.4562654019        1.9159377196
 H          1.8582657504       -2.4114830716        1.8687202300
 C          3.6768104604       -1.4240633020        1.3366756994
 H          3.6967271108       -1.0069562720        2.3462965994
 H          4.6932905003       -1.6879606122        1.0465471492
 H          2.9886215991       -2.3438677319       -2.6056057504
 H          4.6341139689       -2.9665095923       -2.7253660208
 H          4.8092666495       -0.6245774823       -2.4554578509
 H          5.3288577198       -1.3452606024       -0.9224521210
 O          2.9198603000        0.6051651581       -1.7321720104
 C          1.9393639503        1.4930004483       -1.3061487801
 O          1.5002483801        2.2393494884       -2.2014371900
 H         -0.4225835798        0.1158400888       -0.5859933994
 C         -1.1492026097        0.9149015289       -0.6722913992
 C         -0.8370003893        2.1754290889       -0.1809313793
 C         -1.7947897491        3.1774267391       -0.2950896191
 C         -3.0205611293        2.9234275593       -0.8859712187
 C         -3.3213428797        1.6670367594       -1.3809165586
 C         -2.3708173999        0.6623821292       -1.2780909889
 N         -2.6875229703       -0.6342881708       -1.7566940588
 S         -3.6327383602       -1.5267206606       -0.6965161785
 O         -3.7496767706       -2.8456170506       -1.2747692884
 O         -4.8607302200       -0.8096960903       -0.4716424282
 C         -2.6676837598       -1.5959450607        0.8008846012
 C         -1.8410146899       -2.6810059909        1.0128292810
 C         -1.0143577696       -2.6870549811        2.1246233608
 C         -1.0110244692       -1.6020319510        2.9878730908
 C         -1.8448336990       -0.5188023609        2.7587838010
 C         -2.6844823493       -0.5119433807        1.6564692612
 H         -3.3507958592        0.3100898294        1.4498191914
 H         -1.8337489586        0.3244937791        3.4302006410
 H         -0.3492249489       -1.5935970612        3.8394557306
 H         -0.3710563097       -3.5328137012        2.3095932606
 H         -1.8684839803       -3.5001957609        0.3118348810
 H         -1.8677183905       -1.1779088310       -1.9893572890
 H         -4.2745485899        1.4445131995       -1.8314589184
 H         -3.7508548892        3.7142951894       -0.9630680985
 H         -1.5787854788        4.1630630790        0.0841418208
 C          0.4809022710        2.4080480986        0.5183438603
 H          0.3393840912        2.1624100287        1.5826557803
 C          0.9526142312        3.8456305285        0.4126610501
 C          0.5825480017        4.8521869786        1.4599703502
 C          1.9870354716        4.3373976583        1.3793511798
 H          2.7623129116        4.9948478582        1.0156637096
 H          2.3226081017        3.6456190983        2.1382359997
 H         -0.0275808681        4.5181289787        2.2856401104
 H          0.3932844418        5.8696797886        1.1522767202
 H          1.0312677910        4.1807126085       -0.6154523899
 O          1.7771097210        0.4908293684        2.1714950699
