  62
        -98.94532900
 C         -2.3604577927       -0.3905644159        0.0941422775
 C         -1.5605216229        0.2718454474       -0.8636434745
 C         -1.6085500426        1.7445159182       -0.8596516402
 C         -2.3548329988        2.3736524130        0.0646006625
 C         -2.6253754590        3.8487388558        0.2427041911
 C         -1.4995175924        4.8415461612       -0.0554415796
 C         -0.1088316327        4.3985473396        0.4211359721
 H          0.3311066869        5.1921893181        1.0283042117
 H         -0.1887723750        3.5119936895        1.0543153147
 C          0.8483925827        4.0936423504       -0.7319984410
 H          0.7426557801        4.8626929265       -1.5007945975
 H          1.8735312936        4.1375482660       -0.3556082654
 C          0.6570949153        2.7139639060       -1.3561613713
 H          0.8964870567        1.9548124721       -0.6076813442
 H          1.3755003407        2.6051737702       -2.1726301326
 C         -0.7551545687        2.4236596887       -1.8934708851
 H         -1.2259043577        3.3275835601       -2.2732033338
 H         -0.6633425914        1.7096041970       -2.7164016314
 H         -1.4650368674        5.0478854130       -1.1239597480
 H         -1.7727168364        5.7769228215        0.4368630995
 H         -3.4951995455        4.1020179998       -0.3722944633
 H         -2.9332124804        3.9544592978        1.2865370867
 O         -3.0682110677        1.6917644484        1.0084951741
 C         -3.0895902917        0.3100148333        1.0506964293
 O         -3.7855703675       -0.1692997656        1.9710784793
 H         -0.4218911783       -0.9752327263        1.6554401662
 C         -0.1067073960       -1.8400022156        1.0894366210
 C         -1.0033987875       -2.4674768564        0.2344269452
 C         -0.5738299173       -3.5856234030       -0.4701862249
 C          0.7267348295       -4.0412667958       -0.3391089219
 C          1.6302223577       -3.3812460793        0.4736809690
 C          1.2072504370       -2.2667534479        1.1885513495
 N          2.0925588073       -1.5384515255        2.0115536554
 S          2.3897032006        0.0535192707        1.5746494477
 O          3.3660329531        0.5283941696        2.5322009283
 O          1.1516022474        0.7855237804        1.5137858205
 C          3.1581453044       -0.0658044788       -0.0323598363
 C          4.5292036047        0.0896110107       -0.1120626852
 C          5.1544269678       -0.0616925906       -1.3385843096
 C          4.4016170786       -0.3752898139       -2.4603908454
 C          3.0282635516       -0.5328434494       -2.3621398055
 C          2.3932644108       -0.3795121093       -1.1384957268
 H          1.3230258749       -0.4894889356       -1.0538482667
 H          2.4340924186       -0.7752001538       -3.2285506844
 H          4.8866238939       -0.4965646041       -3.4162039406
 H          6.2225464156        0.0630949374       -1.4150666796
 H          5.0710293707        0.3341025234        0.7873794954
 H          2.9765125217       -2.0044890093        2.1668679061
 H          2.6522013714       -3.7197192571        0.5553957608
 H          1.0459048000       -4.9109762312       -0.8926963148
 H         -1.2573591579       -4.0979016911       -1.1273218487
 C         -2.4009742519       -1.9075385577        0.1302517951
 H         -2.9487380615       -2.1754517734        1.0462336430
 C         -3.1674039781       -2.4308081646       -1.0683412417
 C         -3.9646046341       -3.6957166236       -0.9677592978
 C         -4.6642829753       -2.3731199480       -1.0472557830
 H         -5.1841102521       -2.1152358641       -1.9576867800
 H         -5.1299249172       -1.9820285349       -0.1539524036
 H         -3.9676173088       -4.2117909950       -0.0195431396
 H         -4.0091634564       -4.3476254504       -1.8271912351
 H         -2.6718598038       -2.2083047508       -2.0064798712
 O         -0.8526233184       -0.3410909704       -1.7058997943
