  62
        -98.94400546
 C         -1.9666983394       -1.1452333903       -0.0980078802
 C         -2.4437374796       -0.1247377002       -0.9552511599
 C         -3.8851664296        0.1450529897       -0.8786558195
 C         -4.6614944994       -0.5843922105       -0.0568158595
 C         -6.1499934094       -0.4437690607        0.1117313709
 C         -6.5637323392        0.6518595791        1.1037279212
 C         -6.3679176394        2.0854387992        0.6086529915
 H         -6.8435593796        2.2006092694       -0.3658091383
 H         -6.8937772793        2.7397892890        1.3068311518
 C         -4.9014934195        2.5319808393        0.5238617013
 H         -4.2789425793        1.8557557892        1.1143198910
 H         -4.7973081394        3.5264055192        0.9637847315
 C         -4.3407052698        2.6056718597       -0.8965484588
 H         -4.8673091800        3.3804100298       -1.4584262685
 H         -3.2873476598        2.8918017098       -0.8338762190
 C         -4.4279065999        1.2892384299       -1.6800124291
 H         -5.4583961999        1.0948353199       -1.9765782289
 H         -3.8155992901        1.3853809801       -2.5799879992
 H         -6.0085305690        0.5089900489        2.0336678011
 H         -7.6239407091        0.5082078590        1.3245227615
 H         -6.6128790396       -0.2531588705       -0.8568095090
 H         -6.5123345692       -1.4028334908        0.4880691008
 O         -4.1666923891       -1.5777237007        0.7287716502
 C         -2.8108532191       -1.8618241906        0.7505921798
 O         -2.4853078389       -2.7605476707        1.5520571695
 H          1.5403028303       -0.1998213298       -1.4469678408
 C          1.3020672905        0.2743654900       -0.5079054407
 C          0.3000414507       -0.2432605003        0.2962283494
 C          0.0199023409        0.3979046594        1.5003726596
 C          0.7169369109        1.5275951094        1.8835517197
 C          1.7147013507        2.0442278197        1.0739884096
 C          2.0004032005        1.4129173000       -0.1269094906
 N          3.0454684402        1.9162567802       -0.9368234207
 S          4.5760220104        1.7005539602       -0.2851646111
 O          4.7321025606        2.5764404899        0.8471001690
 O          5.5028724001        1.8901133105       -1.3775754913
 C          4.5728137906       -0.0020956400        0.2473724985
 C          4.1661532910       -0.3049392703        1.5311824685
 C          4.0576813711       -1.6356475704        1.9018065582
 C          4.3535369510       -2.6342183701        0.9868865879
 C          4.7642264507       -2.3135232798       -0.2981412821
 C          4.8687967505       -0.9849135597       -0.6760981118
 H          5.1862729302       -0.6931835295       -1.6644395318
 H          4.9942456606       -3.0938651296       -1.0056917923
 H          4.2631577211       -3.6693462702        1.2773177477
 H          3.7360734514       -1.8882881306        2.8994257883
 H          3.9460422911        0.4997640396        2.2132214487
 H          3.0280500800        1.5405867404       -1.8750946808
 H          2.2815285207        2.9155194096        1.3598299297
 H          0.4833807711        2.0119025992        2.8197914799
 H         -0.7588711189       -0.0058865607        2.1336211097
 C         -0.4857001593       -1.4790967402       -0.0659523307
 H         -0.3572771091       -2.2105952404        0.7443479191
 C         -0.0542280496       -2.1173761899       -1.3693912809
 C          1.1839251205       -2.9613708898       -1.4108689614
 C         -0.1657480895       -3.6030791599       -1.5222347912
 H         -0.4720123097       -4.0006849397       -2.4782251312
 H         -0.5421961593       -4.1615094401       -0.6777596013
 H          1.8054990602       -2.9233377596       -2.2927543415
 H          1.7334563507       -3.0841687100       -0.4898684215
 H         -0.2902435798       -1.5067115797       -2.2335026207
 O         -1.7101835799        0.5248799601       -1.7449889899
