  62
        -98.93581285
 C         -2.7889549544       -1.0904536959       -0.1586143856
 C         -2.5481090010       -0.0220514728       -1.0571614666
 C         -3.3474029307        1.1948060598       -0.8368901047
 C         -4.2322136362        1.2372385103        0.1746239748
 C         -5.0539852199        2.4354480028        0.5497682176
 C         -4.3279497770        3.3031445309        1.5876126524
 C         -2.8793759495        3.6253896241        1.2202402497
 H         -2.4799080686        4.2676261558        2.0080355052
 H         -2.2947895167        2.7023149077        1.2321741182
 C         -2.7082737126        4.3172783563       -0.1394469596
 H         -3.6597179309        4.7420485461       -0.4613014777
 H         -2.0055417354        5.1451907599       -0.0249296969
 C         -2.1567936076        3.4154122006       -1.2451916093
 H         -1.2507462657        2.9166141919       -0.8918783101
 H         -1.8736949830        4.0480034641       -2.0906945487
 C         -3.1193488701        2.3458379858       -1.7766962692
 H         -4.0680453686        2.8094447880       -2.0540181990
 H         -2.6715502599        1.9140447606       -2.6766860610
 H         -4.8883986123        4.2312294480        1.7135549576
 H         -4.3285535571        2.7730269054        2.5428160638
 H         -5.2654371461        3.0193367938       -0.3439113602
 H         -5.9957925007        2.0862043616        0.9761742780
 O         -4.4421590591        0.1907791200        1.0130552690
 C         -3.7296536739       -0.9862667270        0.8713299307
 O         -4.0231538531       -1.8634900658        1.7078172247
 H         -0.0675020350       -0.6296274328       -0.5633289036
 C          0.1773906818       -1.3602540444        0.1941947548
 C         -0.7384224798       -2.3614568332        0.4877274705
 C         -0.4044491338       -3.3036117555        1.4526774824
 C          0.8150952593       -3.2403964019        2.1047364585
 C          1.7225090268       -2.2375426364        1.8136975302
 C          1.3990365942       -1.2918506565        0.8489731556
 N          2.3005268847       -0.2436624931        0.5527912290
 S          3.8214956954       -0.6726139304       -0.0481393763
 O          3.6987943163       -1.1841846184       -1.3971497746
 O          4.4685980970       -1.5409613282        0.9008976357
 C          4.6174246901        0.9198273314       -0.0606508041
 C          4.6551215374        1.6551834416       -1.2292712263
 C          5.2468449327        2.9086776971       -1.2129934445
 C          5.7841369211        3.4029148909       -0.0341155095
 C          5.7377823391        2.6523541515        1.1314555183
 C          5.1480067460        1.3986183862        1.1216420624
 H          5.0941214660        0.7776639299        2.0004214003
 H          6.1578803076        3.0400060206        2.0454953755
 H          6.2433886933        4.3787989104       -0.0244630549
 H          5.2854786342        3.4936829340       -2.1178524891
 H          4.2316768297        1.2290791974       -2.1249455786
 H          1.8858804127        0.4024380635       -0.1079684634
 H          2.6783646510       -2.1875887237        2.3079108724
 H          1.0615098130       -3.9788412231        2.8527145077
 H         -1.1121141812       -4.0824980588        1.6975544222
 C         -2.0602531211       -2.4231876177       -0.2343530922
 H         -2.7022612010       -3.1300916454        0.3142187179
 C         -1.9339006247       -2.9456582190       -1.6604391552
 C         -0.6363514352       -3.0736012952       -2.3952163545
 C         -1.3422380676       -4.3015950544       -1.9093118219
 H         -1.8152504591       -4.9505375717       -2.6305836740
 H         -0.9141345013       -4.8178884288       -1.0629423746
 H          0.2750860093       -2.7771130664       -1.8987893341
 H         -0.6390186559       -2.8545899902       -3.4523107079
 H         -2.7957407243       -2.6770342129       -2.2632240574
 O         -1.7106502485       -0.0551441923       -1.9968626198
