  62
        -98.94076639
 C         -1.6337420927       -1.5439083756       -0.2219728339
 C         -2.8519570902       -1.3079781890        0.4598934192
 C         -3.6670213122       -0.1763021305       -0.0150537810
 C         -3.2115008373        0.5699330644       -1.0362683153
 C         -3.8375019017        1.8054984288       -1.6223379655
 C         -3.2838996265        3.0699371999       -0.9424550457
 C         -4.0398687562        3.5113486487        0.3094576678
 H         -3.4843100496        4.3420994205        0.7503402859
 H         -5.0222914506        3.8916738123        0.0218946480
 C         -4.2255530238        2.4256922061        1.3723830718
 H         -3.2989097636        1.8600562041        1.4866042541
 H         -4.4223777936        2.9193213239        2.3259706252
 C         -5.3856031587        1.4688561320        1.0600935846
 H         -5.9873025732        1.8866359015        0.2531191343
 H         -6.0423132598        1.3993376101        1.9299285245
 C         -4.9706318251        0.0338713660        0.7063666646
 H         -4.8752330310       -0.5523808221        1.6257992659
 H         -5.7699909023       -0.4340888406        0.1215604072
 H         -3.3067616075        3.8923954079       -1.6602139008
 H         -2.2383366245        2.8820935598       -0.6880360605
 H         -4.9200820962        1.7613880382       -1.5505539034
 H         -3.5576803604        1.8252203975       -2.6777761429
 O         -2.0318857681        0.3095255455       -1.6632954455
 C         -1.2189719126       -0.7470316164       -1.2883959258
 O         -0.1870686746       -0.8602533081       -1.9765038724
 O         -3.2402517542       -2.0111739674        1.4308259911
 C         -0.7394940124       -2.6700401645        0.2719591636
 C          0.5039383524       -2.0281966329        0.8338067229
 C          0.4636281017       -1.4654060887        2.1069898052
 C          1.5487413517       -0.7717749852        2.6088558050
 C          2.6889927856       -0.6023504054        1.8420968367
 C          2.7326470311       -1.1509430011        0.5677098326
 C          1.6565697772       -1.8794564247        0.0790133088
 H          1.7065095208       -2.2924392993       -0.9155598732
 N          3.8643247960       -0.9347603809       -0.2398187342
 S          4.4381495422        0.6364740298       -0.3102242673
 O          5.0371421057        0.7692279337       -1.6203013610
 O          5.3265454742        0.8681933108        0.8031256759
 C          3.0147378368        1.7062410915       -0.1620186383
 C          3.0253223654        2.7105138831        0.7854453446
 C          1.9266291418        3.5475766570        0.8910627882
 C          0.8378445257        3.3662363192        0.0520903870
 C          0.8431264851        2.3538994172       -0.8944740792
 C          1.9400738897        1.5150380366       -1.0069984866
 H          1.9407665925        0.7155786683       -1.7307898271
 H         -0.0025919929        2.1939731690       -1.5454766146
 H         -0.0189825830        4.0169348904        0.1358484482
 H          1.9202489088        4.3352741847        1.6271571257
 H          3.8898535415        2.8116578311        1.4214324370
 H          3.7701026407       -1.3191149856       -1.1691256873
 H          3.5395130519       -0.0495227705        2.2071770987
 H          1.5047203521       -0.3475173355        3.6002634116
 H         -0.4393678624       -1.5670344720        2.6926189995
 H         -1.2903617641       -3.1431214031        1.0953678654
 C         -0.4766357804       -3.7067912252       -0.7988614972
 C          0.0949439811       -5.0359029531       -0.4077386244
 C         -1.3322629221       -4.9353493960       -0.8529197555
 H         -1.6010413132       -5.3332116552       -1.8200676756
 H         -2.1090050420       -5.0364791975       -0.1092531302
 H          0.8079487924       -5.5067305881       -1.0672610612
 H          0.2886679170       -5.2042812040        0.6407878187
 H         -0.1691245812       -3.2809272477       -1.7462756711
