  62
        -98.94505516
 C         -1.6402860888       -1.2655018898       -0.4044852293
 C         -2.9774657490       -1.3572430197        0.0502550003
 C         -3.8303775090       -0.1991771299       -0.2390628904
 C         -3.3167875888        0.8628333300       -0.8866025906
 C         -4.0634406988        2.1154775998       -1.2586214912
 C         -4.1625041492        3.1467424701       -0.1259637616
 C         -5.1257279296        2.7837616404        1.0050499282
 H         -5.2656213298        3.6831509306        1.6081711779
 H         -6.0970362794        2.5211019202        0.5846431179
 C         -4.6338338798        1.6510160108        1.9169427087
 H         -3.5592706298        1.5112045908        1.7780261691
 H         -4.7876029502        1.9311646911        2.9615744786
 C         -5.3379717797        0.3119524006        1.6988946189
 H         -4.8860044498       -0.4267303891        2.3658396093
 H         -6.3931883098        0.4039590507        1.9659887185
 C         -5.2421743191       -0.2234748398        0.2645397291
 H         -5.8917474789        0.3511836799       -0.3954573513
 H         -5.5765387691       -1.2639905898        0.2650161593
 H         -3.1647166094        3.3111541903        0.2865219187
 H         -4.4981081191        4.0865531200       -0.5703836920
 H         -5.0650436086        1.8561299696       -1.6030967315
 H         -3.5174833185        2.5675922096       -2.0891587112
 O         -2.0261181287        0.9103760099       -1.3103070301
 C         -1.1546386087       -0.1464324900       -1.0827930395
 O         -0.0082191785        0.0292236200       -1.5326823592
 O         -3.4354815291       -2.3575404796        0.6648144904
 C         -0.6894765088       -2.4158070496       -0.1199660386
 C          0.4500109108       -1.8826049693        0.7104411716
 C          0.1832599304       -1.4395565389        2.0035911114
 C          1.1762184701       -0.8679440086        2.7755510715
 C          2.4568541602       -0.7159079487        2.2714344619
 C          2.7309609307       -1.1498323590        0.9821744222
 C          1.7357512410       -1.7417000994        0.2149797420
 H          1.9671009114       -2.0680216997       -0.7863971878
 N          4.0275775609       -0.9838356691        0.4531233625
 S          4.6368894708        0.5763626009        0.3941114423
 O          5.7795328411        0.5007590807       -0.4883694873
 O          4.9026729103        1.0267370813        1.7374803422
 C          3.3500407010        1.5637503206       -0.3433821385
 C          3.2895770514        1.6461771901       -1.7196052885
 C          2.2579145316        2.3606859599       -2.3037167291
 C          1.3018482313        2.9675481701       -1.5055429296
 C          1.3762949508        2.8743929305       -0.1254770496
 C          2.4084540906        2.1651393808        0.4658877610
 H          2.4986477303        2.0717733611        1.5359574111
 H          0.6272110106        3.3437984107        0.4926444000
 H          0.4886349614        3.5094330699       -1.9622563101
 H          2.1932060920        2.4311840095       -3.3776862592
 H          4.0532053217        1.1596999400       -2.3056827681
 H          4.1378574712       -1.4138857094       -0.4547580473
 H          3.2407663200       -0.2549716484        2.8504019220
 H          0.9532310197       -0.5320038083        3.7771567713
 H         -0.8215014198       -1.5408650888        2.3909861111
 H         -1.2627595090       -3.1290186995        0.4883444114
 C         -0.2619092984       -3.0992495800       -1.4008300383
 C          0.3039775117       -4.4862886999       -1.3517257876
 C         -1.0656365981       -4.2545557302       -1.9139585882
 H         -1.2093059077       -4.3486821006       -2.9799610682
 H         -1.9198010183       -4.5651697501       -1.3304548584
 H          1.1008918420       -4.7448265501       -2.0325322973
 H          0.3821834714       -4.9583614696       -0.3841200975
 H          0.1369640218       -2.4092854802       -2.1357455883
