  62
        -98.94354808
 C          1.8125471176        0.9184634151       -0.6694816885
 C          2.0241476662        0.0881621154        0.4577474106
 C          3.4212235228       -0.0506026290        0.8886484630
 C          4.3932285731        0.6120338096        0.2357905238
 C          5.8601294968        0.5881809401        0.5705424476
 C          6.6153976460       -0.6110448756       -0.0188674660
 C          6.3273981477       -1.9552748680        0.6509973211
 H          7.0793570840       -2.6598782270        0.2900393435
 H          6.4630094168       -1.8588970259        1.7286741768
 C          4.9335865988       -2.5257422477        0.3538503976
 H          4.5115462278       -2.0202190756       -0.5177396539
 H          5.0209157796       -3.5842540667        0.0986851611
 C          3.9441968654       -2.4192032070        1.5143304963
 H          4.2913796377       -3.0318917374        2.3492445603
 H          2.9818277473       -2.8156688798        1.1815952439
 C          3.7165452118       -0.9886628904        2.0198448185
 H          4.5841792941       -0.6457709431        2.5831161198
 H          2.8470232185       -0.9920322804        2.6816334132
 H          7.6833937460       -0.4024333451        0.0781969097
 H          6.3859605072       -0.6782963988       -1.0848384523
 H          6.2885857783        1.5026709094        0.1546145879
 H          5.9898227281        0.6053144250        1.6530499903
 O          4.1423363699        1.4231568441       -0.8271529509
 C          2.8546589806        1.5843544531       -1.3132131280
 O          2.7683376023        2.3424614068       -2.3012727977
 O          1.1003927514       -0.5032805070        1.0730477006
 C          0.4063575812        1.1115930370       -1.2071804100
 C         -0.4869434724        1.6676895089       -0.1252384058
 C         -0.0527337668        2.7701570457        0.6069190972
 C         -0.8351639156        3.3011815404        1.6131429618
 C         -2.0705789852        2.7502596779        1.9065136793
 C         -2.5176293311        1.6560484286        1.1766952208
 C         -1.7284427467        1.1258077849        0.1643883202
 H         -2.0949819488        0.2831053177       -0.3958800123
 N         -3.7466058277        1.0555487442        1.4744951430
 S         -4.6757240781        0.3268570475        0.2968201920
 O         -4.6489173722        1.0679786910       -0.9429902133
 O         -5.9778015860        0.1755454016        0.9113176225
 C         -3.9519351992       -1.2832250676        0.0640808139
 C         -3.4320234474       -1.9563797518        1.1513807701
 C         -2.8919709792       -3.2180455934        0.9602379585
 C         -2.8872727854       -3.7855149218       -0.3047860173
 C         -3.4213467344       -3.1002973743       -1.3849948127
 C         -3.9601526428       -1.8367716367       -1.2011250983
 H         -4.3758631126       -1.2627578129       -2.0143334032
 H         -3.4167563104       -3.5437319007       -2.3682227471
 H         -2.4628685938       -4.7664706978       -0.4502999277
 H         -2.4713459533       -3.7519015377        1.7971791604
 H         -3.4427750025       -1.4852170148        2.1199357714
 H         -4.3012389939        1.5169119593        2.1795586940
 H         -2.6804809698        3.1607400482        2.6968278524
 H         -0.4827274840        4.1533806398        2.1748496650
 H          0.9131781031        3.2006862236        0.3784380702
 H          0.4834963335        1.8647475958       -2.0053419846
 C         -0.1004682542       -0.1843021006       -1.8057700879
 C         -1.1134441132       -0.1626665808       -2.9092653003
 C          0.3057289390       -0.5443813979       -3.2019665570
 H          0.5262800621       -1.5773056507       -3.4250619137
 H          0.9283611761        0.1604036134       -3.7341152521
 H         -1.8665218813       -0.9356228765       -2.9297352745
 H         -1.4650655120        0.8005235637       -3.2476334981
 H         -0.1551461511       -0.9858587617       -1.0776004737
