  62
        -98.93430176
 C          1.9617182071        1.6124543943        0.0548799277
 C          2.3019934799        0.6208450608       -0.8972729881
 C          3.6391196560        0.0213051913       -0.7522242657
 C          4.4521715013        0.4177477106        0.2417958258
 C          5.8544249996       -0.0622759806        0.5073049283
 C          6.0014323983       -1.5420858884        0.9115264321
 C          6.2961547702       -2.4911167558       -0.2568206743
 H          6.7641734184       -1.9227332450       -1.0615467500
 H          7.0284184066       -3.2323159322        0.0697583252
 C          5.0950191903       -3.2650549728       -0.8089200461
 H          5.3865879520       -3.6933929674       -1.7703998373
 H          4.8653282179       -4.0947757505       -0.1363128603
 C          3.8093115491       -2.4591304197       -0.9957350608
 H          3.3404193624       -2.2868464253       -0.0234933177
 H          3.1079760785       -3.0664579341       -1.5719793997
 C          3.9996198408       -1.0955863498       -1.6885950761
 H          5.0229473396       -0.9837228091       -2.0432196271
 H          3.3270457583       -1.0167407226       -2.5450944701
 H          6.8359969879       -1.5966760741        1.6123580962
 H          5.1089455565       -1.8631015526        1.4483708832
 H          6.4661877080        0.1342627756       -0.3761186686
 H          6.2275419810        0.5668131572        1.3180479124
 O          4.0875476444        1.3743009877        1.1384902832
 C          2.8460139096        1.9809034433        1.0736944587
 O          2.6488260310        2.8331085450        1.9628679541
 H         -0.0642004803       -0.2363830746       -0.3404766904
 C         -0.6581103633        0.2214585215        0.4364902915
 C         -0.4321712323        1.5497112945        0.7717486522
 C         -1.2154494910        2.1271417724        1.7639079096
 C         -2.1928951139        1.3889105655        2.4092940118
 C         -2.4115698116        0.0644437444        2.0761953585
 C         -1.6366867761       -0.5202843563        1.0821524192
 N         -1.8579877126       -1.8618661500        0.7238440374
 S         -3.4434652953       -2.3306757205        0.4581917416
 O         -4.0819417532       -2.6012781335        1.7225442307
 O         -3.3662635745       -3.4439579710       -0.4607221251
 C         -4.2155893484       -0.9226523517       -0.3188607775
 C         -3.7390544760       -0.5187078515       -1.5504819253
 C         -4.2933816751        0.6009655833       -2.1492738580
 C         -5.3072101793        1.2958821751       -1.5076447890
 C         -5.7785660831        0.8742727295       -0.2742509367
 C         -5.2278615309       -0.2449233503        0.3294175715
 H         -5.5629427290       -0.6063284540        1.2878580533
 H         -6.5687082164        1.4151347911        0.2209848546
 H         -5.7304885356        2.1712731068       -1.9740044401
 H         -3.9259789083        0.9312668448       -3.1075336649
 H         -2.9499645943       -1.0813903960       -2.0244281223
 H         -1.2529456836       -2.1841156963       -0.0175928691
 H         -3.1611105447       -0.5284136373        2.5748046864
 H         -2.7896025850        1.8483933443        3.1821589771
 H         -1.0434359037        3.1574247703        2.0387889174
 C          0.6295722301        2.3463288241        0.0578329086
 H          0.8095374409        3.2587708841        0.6472835432
 C          0.2002071138        2.7892448423       -1.3358359884
 C         -0.9456353730        2.1880609575       -2.0868178103
 C         -1.0695471706        3.5673901130       -1.5181621781
 H         -1.0658913270        4.4117582537       -2.1904355360
 H         -1.7017005073        3.6917036085       -0.6519496246
 H         -1.5049507980        1.3944669002       -1.6174479249
 H         -0.8321130770        2.0694755806       -3.1535299180
 H          1.0512973893        3.1021200434       -1.9327087475
 O          1.5477792530        0.2367361254       -1.8287107289
