  62
        -98.94521868
 C         -2.4532515249       -1.1923602674       -0.0698016786
 C         -3.5498771316       -0.8448416021        0.7591654888
 C         -4.4598732173        0.1750405335        0.2287150723
 C         -4.2218659198        0.7171705267       -0.9794312237
 C         -5.0669129555        1.7564676040       -1.6648332940
 C         -4.7600916963        3.1960663597       -1.2295603824
 C         -5.2418416953        3.5685834525        0.1732046659
 H         -5.1594750968        4.6536709829        0.2618104039
 H         -6.2971171364        3.3127637500        0.2730127364
 C         -4.4422723130        2.9187194864        1.3111962535
 H         -4.2063919386        3.6718761645        2.0663935625
 H         -3.4902795483        2.5485153144        0.9226651392
 C         -5.1664990179        1.7754403257        2.0221870264
 H         -6.0532808215        2.1624821845        2.5288378304
 H         -4.4959758238        1.3655448132        2.7815679435
 C         -5.5939080861        0.6274801489        1.0984017871
 H         -5.8937795460       -0.2194233119        1.7202859135
 H         -6.4434584772        0.9320844042        0.4878366182
 H         -3.6820403507        3.3599684568       -1.3005681043
 H         -5.2448886278        3.8631005634       -1.9462176700
 H         -4.8606839065        1.6689686091       -2.7337648843
 H         -6.1222225653        1.5407980850       -1.4953877193
 O         -3.1614235272        0.3533836234       -1.7479977545
 C         -2.2426948360       -0.5909570774       -1.3105436430
 O         -1.3158320306       -0.8035895451       -2.1170290465
 O         -3.7591293058       -1.3668101024        1.8858999502
 C         -1.4649193256       -2.2239181836        0.4498825170
 C         -0.1603995254       -1.5207327869        0.7301718688
 C         -0.0247070853       -0.7883519350        1.9068640651
 C          1.1298275336       -0.0742441496        2.1644051458
 C          2.1700715000       -0.0660047344        1.2506583762
 C          2.0365998100       -0.7774862903        0.0667019459
 C          0.8846534843       -1.5137416382       -0.1796228347
 H          0.7910085688       -2.0522336921       -1.1092740184
 N          3.0810131347       -0.7679018092       -0.8734960464
 S          3.7958538357        0.7010177325       -1.2580505499
 O          2.8830634980        1.8086188454       -1.0920756401
 O          4.3510091613        0.5160267733       -2.5814258735
 C          5.1344712753        0.8302061214       -0.0886647333
 C          6.0020000922       -0.2381845793        0.0296876604
 C          7.0551125027       -0.1491538269        0.9258096526
 C          7.2249993668        1.0013427196        1.6816663907
 C          6.3480501745        2.0667957579        1.5485928317
 C          5.2915231320        1.9835006994        0.6547196201
 H          4.5808972946        2.7840230733        0.5224964266
 H          6.4812628557        2.9607149599        2.1365621985
 H          8.0452124323        1.0679513166        2.3788850712
 H          7.7388365116       -0.9758721762        1.0322725960
 H          5.8362662106       -1.1127264686       -0.5768340235
 H          2.8664933088       -1.2868385567       -1.7131928203
 H          3.0682957428        0.4992533965        1.4383145549
 H          1.2221616541        0.4854334685        3.0828163966
 H         -0.8455191069       -0.7769132789        2.6105499996
 H         -1.8816639885       -2.5661555492        1.4067575985
 C         -1.3399882890       -3.4125007841       -0.4792682257
 C         -0.6968835401       -4.6701365771        0.0216775145
 C         -2.1744102882       -4.6303256338       -0.2241120335
 H         -2.5723831251       -5.1674752155       -1.0720094790
 H         -2.8355141201       -4.6123168547        0.6297777510
 H         -0.0780627477       -5.2386897669       -0.6555461778
 H         -0.3531668986       -4.6778965932        1.0448302471
 H         -1.1779714621       -3.1348225961       -1.5138837629
