  62
        -98.94403208
 C          2.5122743216       -1.1511162935        0.0947256841
 C          3.2543532540       -0.4086693515       -0.8536258872
 C          4.0371059473        0.7147645245       -0.3218108226
 C          4.0081692540        0.9685112685        0.9996744183
 C          4.7096922260        2.1150241804        1.6675013686
 C          3.7998071926        3.3486283440        1.7514296486
 C          3.1247565666        3.7089044416        0.4278979525
 H          2.4269417283        2.9132800981        0.1554145413
 H          2.5317352052        4.6100320398        0.5987498057
 C          4.0970106465        3.9498217551       -0.7355336405
 H          3.7869158411        4.8499415850       -1.2705790690
 H          5.0998967802        4.1324674430       -0.3482150424
 C          4.1507075947        2.8179187809       -1.7634761671
 H          3.1368981585        2.5700675020       -2.0896968963
 H          4.6943340992        3.1803506426       -2.6400493985
 C          4.8381162662        1.5269076360       -1.3005205822
 H          5.8231644170        1.7612370312       -0.8922082894
 H          4.9728519871        0.8897293469       -2.1796048279
 H          3.0198605705        3.1539273784        2.4910851503
 H          4.3954006710        4.1944177103        2.0992566050
 H          4.9840609325        1.8080343470        2.6779851460
 H          5.6144164699        2.3543462873        1.1122188862
 O          3.2857297726        0.2312009057        1.8806032133
 C          2.5087205774       -0.8364588677        1.4539981009
 O          1.8793632543       -1.4088660308        2.3621965002
 O          3.2556323357       -0.6681769598       -2.0885318400
 C          1.6634065982       -2.3148335985       -0.3823134457
 C          0.2072900499       -2.0649099083       -0.0718665478
 C         -0.6369738900       -3.0301762842        0.4602879915
 C         -1.9671374969       -2.7377583083        0.7093335124
 C         -2.4844393008       -1.4859503215        0.4336562457
 C         -1.6533119084       -0.5164850449       -0.1129940161
 C         -0.3236475317       -0.8146563500       -0.3663079204
 H          0.3217977148       -0.0579122559       -0.7969213620
 N         -2.1662818415        0.7634344343       -0.3895523632
 S         -3.5719279968        0.8723805714       -1.3030113007
 O         -3.7021112601       -0.2464709325       -2.2076092471
 O         -3.5271267572        2.1858138442       -1.9078146187
 C         -4.8750062889        0.8344698414       -0.0910383862
 C         -5.8806678324       -0.1069144715       -0.1901454303
 C         -6.8896582957       -0.1115197089        0.7605180177
 C         -6.8754061982        0.8208931624        1.7864818365
 C         -5.8593673384        1.7614510406        1.8701044948
 C         -4.8483197579        1.7721677008        0.9226328093
 H         -4.0426866348        2.4868747140        0.9501557988
 H         -5.8514239352        2.4846110072        2.6696834094
 H         -7.6606400381        0.8148640090        2.5258214874
 H         -7.6806154017       -0.8414057952        0.6973822347
 H         -5.8466815021       -0.8157254352       -1.0020832762
 H         -1.4727751308        1.4114665894       -0.7338264747
 H         -3.5174057635       -1.2531327657        0.6338933570
 H         -2.6094963759       -3.4963332627        1.1297394813
 H         -0.2530904988       -4.0115968060        0.6846158546
 H          1.7769062437       -2.3296599222       -1.4772874488
 C          2.1892342247       -3.6199745044        0.1771777922
 C          2.0225141861       -4.8949695547       -0.5927127770
 C          3.3747373744       -4.2598572642       -0.4788429923
 H          4.1178794429       -4.7317982709        0.1460832653
 H          3.7855034589       -3.7673187195       -1.3483334271
 H          1.8399839576       -5.8077460805       -0.0459433744
 H          1.5168338392       -4.8417631282       -1.5451175704
 H          2.1334063413       -3.6605278481        1.2590701851
