  62
        -98.94410936
 C          2.2254299102        1.2943197893       -0.1412152799
 C          2.6059961304        0.2057977495       -0.9627568301
 C          3.9705703704       -0.2971617605       -0.7575355800
 C          4.7763905402        0.2943147094        0.1427091302
 C          6.1974741602       -0.0931604506        0.4494895903
 C          6.3245271501       -1.2402869107        1.4613155102
 C          5.9392603202       -2.6218107207        0.9306107599
 H          6.4799739004       -2.8179791405        0.0041689399
 H          6.2783242902       -3.3536726808        1.6665000598
 C          4.4336874203       -2.8155238607        0.7008506696
 H          3.8790926502       -2.0419992708        1.2373212997
 H          4.1217831403       -3.7764554708        1.1163468994
 C          4.0086445505       -2.7989343905       -0.7676284004
 H          4.4510390906       -3.6521101104       -1.2868803605
 H          2.9213346905       -2.9052806205       -0.8100654106
 C          4.3890773005       -1.5172693403       -1.5205700101
 H          5.4611946305       -1.4985491902       -1.7149973900
 H          3.8587084306       -1.5110734902       -2.4759988802
 H          5.7146242700       -1.0035134909        2.3361899801
 H          7.3677429201       -1.2766404608        1.7834274003
 H          6.7126099503       -0.3612448604       -0.4732364196
 H          6.6773030701        0.7925297094        0.8714701706
 O          4.3811369501        1.3585972393        0.8908178404
 C          3.0944812001        1.8617375192        0.7916574303
 O          2.8497639499        2.8045320091        1.5712998404
 H         -1.1012482695        0.5822924195       -1.7479148705
 C         -1.0662851597        0.2350121093       -0.7277419506
 C         -0.1603557998        0.7877155792        0.1621434697
 C         -0.1366015400        0.3113187590        1.4708852496
 C         -0.9842505300       -0.7036471812        1.8703894993
 C         -1.8747285498       -1.2680623110        0.9730849091
 C         -1.9108583597       -0.7957078608       -0.3314998909
 N         -2.8118085595       -1.3606796807       -1.2465484711
 S         -4.3735173296       -1.6821349808       -0.7497040913
 O         -4.4072780696       -2.9117582010        0.0026133184
 O         -5.1656146694       -1.6604472707       -1.9591548814
 C         -4.8155154998       -0.3154795111        0.3094585888
 C         -5.1277209199       -0.5428293713        1.6340668588
 C         -5.4427949401        0.5367643085        2.4438711789
 C         -5.4365714201        1.8190297086        1.9178836691
 C         -5.1234220299        2.0311578189        0.5837196792
 C         -4.8089152798        0.9556062090       -0.2304306909
 H         -4.5678633396        1.0866208892       -1.2729812509
 H         -5.1208841099        3.0295980690        0.1767706394
 H         -5.6781366702        2.6588920685        2.5500826793
 H         -5.6884823802        0.3744626584        3.4810230889
 H         -5.1198827199       -1.5557209514        2.0025520386
 H         -2.7818226794       -0.9524105405       -2.1684258910
 H         -2.5272647298       -2.0764207011        1.2603395988
 H         -0.9495486901       -1.0649246313        2.8870320392
 H          0.5674217999        0.7456368789        2.1680091497
 C          0.8202722602        1.8669833893       -0.2270794500
 H          0.7711927301        2.6613747392        0.5303234601
 C          0.5665644103        2.4756826195       -1.5895135100
 C         -0.5294885797        3.4832455495       -1.7601676999
 C          0.9039152503        3.9174848996       -1.8148713497
 H          1.3214213804        4.2053137798       -2.7681621195
 H          1.3058912202        4.4711412395       -0.9788481695
 H         -1.1038896598        3.7461464893       -0.8849863300
 H         -1.0977061696        3.4795481796       -2.6780932000
 H          0.7638295005        1.7882407797       -2.4035661400
 O          1.8554554005       -0.3195404504       -1.8255946703
