  62
        -98.94219878
 C         -2.5602752851       -0.2555593660        0.5913052348
 C         -2.1952787395        0.2623222967       -0.6763743330
 C         -2.0835009999        1.7253144140       -0.7603071986
 C         -2.2872255584        2.4801390918        0.3337205370
 C         -2.2574031289        3.9834535757        0.3984538472
 C         -0.8520835955        4.5771008315        0.5601639851
 C          0.0217865948        4.5206319988       -0.6929037659
 H         -0.5288410660        4.9324123961       -1.5395603362
 H          0.8817273188        5.1691463031       -0.5143920953
 C          0.5314620786        3.1162420147       -1.0436058987
 H          1.5938729519        3.1614047915       -1.2968877184
 H          0.4539223095        2.4601889663       -0.1726588751
 C         -0.1742116858        2.4491660145       -2.2241880973
 H          0.0401005683        3.0050643862       -3.1406803603
 H          0.2453958220        1.4452415734       -2.3302828457
 C         -1.6961042389        2.3265507827       -2.0775060184
 H         -2.1637679476        3.3044181846       -2.1992339836
 H         -2.0607833762        1.6621867723       -2.8653251114
 H         -0.3453538665        4.0584668608        1.3775368438
 H         -0.9712496171        5.6238918875        0.8495702953
 H         -2.7275570858        4.3967032053       -0.4945698665
 H         -2.8532271029        4.2661391069        1.2691914025
 O         -2.5847539501        1.9412022679        1.5464379371
 C         -2.7004143253        0.5708185452        1.7080634559
 O         -2.9357656141        0.2143051875        2.8812993573
 H         -0.1511703882       -1.1368702111        1.1514643499
 C         -0.2586063052       -1.9975960426        0.5070720583
 C         -1.5307728412       -2.4746759150        0.2150297926
 C         -1.6505494965       -3.5824743194       -0.6128598835
 C         -0.5214669812       -4.1785055803       -1.1482676695
 C          0.7386229124       -3.6733217251       -0.8889255180
 C          0.8690975943       -2.5662236905       -0.0580641181
 N          2.1385260776       -2.0171400985        0.2328237295
 S          2.3040861441       -0.3540925460       -0.0455168000
 O          1.5707907933        0.3764550803        0.9566845609
 O          1.9986636110       -0.0589962128       -1.4272210584
 C          4.0547075352       -0.1668295913        0.2391577569
 C          4.9162936788       -0.0676999011       -0.8363995027
 C          6.2774019668        0.0422241675       -0.5975713871
 C          6.7508949578        0.0480678314        0.7056262849
 C          5.8733380748       -0.0505961892        1.7754368582
 C          4.5115737646       -0.1597081551        1.5431208040
 H          3.7909147571       -0.2310337886        2.3412038206
 H          6.2444561466       -0.0429674824        2.7875984092
 H          7.8102539659        0.1325808517        0.8895386857
 H          6.9613197445        0.1224951369       -1.4270530452
 H          4.5007176710       -0.0691183981       -1.8313083734
 H          2.8691510831       -2.4979451976       -0.2787039302
 H          1.6152238383       -4.1242825705       -1.3300483945
 H         -0.6271552875       -5.0371755410       -1.7941547518
 H         -2.6263717203       -3.9664434570       -0.8609560220
 C         -2.6992025843       -1.7489131077        0.8367723379
 H         -2.6138542851       -1.8616260545        1.9311411163
 C         -4.0526565754       -2.3254841027        0.4468129431
 C         -5.2681709056       -1.4536941882        0.3494135501
 C         -4.6784001155       -2.0575007193       -0.8878002460
 H         -5.2172379274       -2.8590880519       -1.3716721389
 H         -4.1392602751       -1.4176614941       -1.5680149502
 H         -6.2060474000       -1.8416883381        0.7177311173
 H         -5.1385877139       -0.3936281624        0.5144975337
 H         -4.2090630580       -3.3133179455        0.8692107473
 O         -1.9941038768       -0.4461190086       -1.6972892394
