  62
        -98.93655960
 C         -2.5457051261       -0.0255566965        0.1279448233
 C         -2.3887564175        1.1237236640        0.9377373303
 C         -1.8117111577        2.3265278495        0.3094647013
 C         -1.4794434737        2.2754917229       -0.9934452642
 C         -0.8106384260        3.3302171054       -1.8345736262
 C          0.6957154248        3.4141888345       -1.5518231206
 C          1.0633425971        3.4951762937       -0.0726434153
 H          0.7449436689        2.5759736752        0.4247685368
 H          2.1550751530        3.5208169488       -0.0063157976
 C          0.5204737885        4.7117330241        0.6756513447
 H          0.9740146919        4.6998228726        1.6699192276
 H          0.8537400768        5.6197313609        0.1682093891
 C         -0.9995412636        4.7805711219        0.8543990389
 H         -1.4892323086        5.1614808765       -0.0381498040
 H         -1.1994634493        5.5038247928        1.6503007316
 C         -1.6488886497        3.4690820872        1.2827931059
 H         -2.6573120995        3.6813552812        1.6585569962
 H         -1.1021991092        3.0594996280        2.1405816743
 H          1.0989025838        4.2799884208       -2.0811155430
 H          1.1639569008        2.5116230517       -1.9539232446
 H         -0.9517183605        3.0340797274       -2.8765822055
 H         -1.2861509958        4.2957705857       -1.6923323436
 O         -1.6859665203        1.1602910601       -1.7481977821
 C         -2.1468068218       -0.0256766293       -1.2101978713
 O         -2.1752496746       -0.9709699743       -2.0213360199
 O         -2.6966027460        1.1428388083        2.1625425828
 C         -2.9358315922       -1.3249372703        0.8148376180
 C         -1.8560633368       -2.3357902820        0.5152820996
 C         -2.0756030912       -3.6022447471       -0.0067369178
 C         -1.0021564090       -4.4194133743       -0.3218401087
 C          0.2995219935       -3.9860710493       -0.1508559456
 C          0.5278900048       -2.7226084674        0.3843459675
 C         -0.5465639221       -1.9303164864        0.7433006686
 H         -0.3594328130       -0.9507817825        1.1603281504
 N          1.8312978674       -2.2249016633        0.5749979217
 S          2.0570815776       -0.5691470865        0.2934981894
 O          1.6955247974        0.1546430305        1.4874168383
 O          1.4019556667       -0.1701429215       -0.9302019022
 C          3.8282648559       -0.5234507295        0.0882832586
 C          4.6288434341       -0.5048258359        1.2146467012
 C          6.0057767753       -0.5068093228        1.0577152246
 C          6.5561971967       -0.5277341967       -0.2153119293
 C          5.7401179295       -0.5434826559       -1.3364578325
 C          4.3621279059       -0.5433225110       -1.1861814862
 H          3.6869952066       -0.5477181877       -2.0272651870
 H          6.1699196048       -0.5559979840       -2.3250820630
 H          7.6280393365       -0.5289921659       -0.3348611860
 H          6.6431827304       -0.4915093384        1.9269315122
 H          4.1540847601       -0.4795786874        2.1815707584
 H          2.5289906006       -2.7733502509        0.0897872806
 H          1.1316339129       -4.6124249328       -0.4348366290
 H         -1.1837854620       -5.4001284585       -0.7350282494
 H         -3.0818335812       -3.9381725420       -0.1969327732
 H         -2.8828554039       -1.0828105269        1.8906740589
 C         -4.3482814373       -1.8212894035        0.5569566261
 C         -5.4305106679       -0.8752692830        0.1320394302
 C         -4.9365863421       -1.9233550497       -0.8171349649
 H         -5.5839615609       -2.7611680364       -1.0321452443
 H         -4.3188375975       -1.6194903034       -1.6466672910
 H         -6.4130284143       -0.9889092431        0.5650742507
 H         -5.1475665990        0.1513931875       -0.0518794638
 H         -4.6387942699       -2.5913415801        1.2655668495
