  62
        -98.93823820
 C          2.4908043133        0.7124109211        0.0210796892
 C          2.8865751721       -0.4468198993        0.7371318292
 C          4.0196951376       -1.2017730844        0.1892819062
 C          4.5987610635       -0.7772138778       -0.9484099137
 C          5.7930252118       -1.4162427666       -1.5946109933
 C          7.1004472965       -0.7905824874       -1.0889561527
 C          7.1888353121       -0.6909002046        0.4339047347
 H          8.1643680487       -0.2636469373        0.6760574659
 H          6.4328329746        0.0129952203        0.7895046397
 C          7.0195262898       -2.0281768393        1.1684058411
 H          7.1793136832       -2.8546324935        0.4750458628
 H          7.7860688383       -2.1019786164        1.9427137360
 C          5.6673293834       -2.2035925796        1.8621595124
 H          5.7347284649       -3.0714452448        2.5236847886
 H          5.4604755346       -1.3315024060        2.4877093355
 C          4.4655794804       -2.4276963852        0.9355338894
 H          3.6163304875       -2.7238304370        1.5582228664
 H          4.6832176282       -3.2423335483        0.2417801916
 H          7.9355176467       -1.3840959439       -1.4655746246
 H          7.1851976501        0.2167132232       -1.5032161940
 H          5.7220171221       -1.2656741362       -2.6730798947
 H          5.7840011754       -2.4841295089       -1.3850689770
 O          4.1815640334        0.3236167887       -1.6199794964
 C          3.1222954328        1.1003098880       -1.1617131806
 O          2.8673449323        2.0731770541       -1.8931874697
 O          2.3166024570       -0.8268983004        1.7959449302
 C          1.3310891021        1.5001632277        0.6038471706
 C          0.0177348637        1.0195738807        0.0411420809
 C         -0.1974543131        0.9428601095       -1.3314489256
 C         -1.4139708448        0.5082481816       -1.8251152079
 C         -2.4342040764        0.1353389066       -0.9670919407
 C         -2.2291392999        0.2036190985        0.4039922301
 C         -1.0079530916        0.6470532058        0.8971833352
 H         -0.8476029304        0.6879845692        1.9663390729
 N         -3.2521677694       -0.1924101259        1.2793254588
 S         -4.8062914130        0.3900582606        1.0310476693
 O         -4.7857395663        1.6843369419        0.3906801179
 O         -5.4429890630        0.3226673892        2.3279137182
 C         -5.5517312672       -0.8160428739       -0.0454218493
 C         -5.5629468795       -2.1355002463        0.3624712570
 C         -6.1474656248       -3.0849407772       -0.4602690187
 C         -6.7104870041       -2.7008570275       -1.6683136227
 C         -6.6946530812       -1.3715142608       -2.0616742272
 C         -6.1104974601       -0.4168639356       -1.2436567459
 H         -6.0712456486        0.6272473408       -1.5109587717
 H         -7.1335090960       -1.0748813075       -3.0007697897
 H         -7.1645338582       -3.4420527342       -2.3069320783
 H         -6.1620528818       -4.1196552849       -0.1577254498
 H         -5.1186633053       -2.3929538570        1.3094996527
 H         -2.9983098852       -0.1523550125        2.2556694724
 H         -3.3818947697       -0.2059013525       -1.3501098257
 H         -1.5693205112        0.4563905124       -2.8921519662
 H          0.5969220842        1.2321917146       -2.0029938949
 H          1.3377011129        1.2478481001        1.6765532876
 C          1.5075890230        3.0084660643        0.4989682495
 C          0.6861719255        3.8878990431       -0.3899109357
 C          0.4785702743        3.9253208139        1.0925828657
 H          0.8104974579        4.7915672022        1.6445649335
 H         -0.4253202142        3.4759390038        1.4775010520
 H          1.1850367424        4.7161714979       -0.8691925734
 H         -0.0794889734        3.4332288911       -0.9981666495
 H          2.5452097316        3.3003499195        0.6267241558
