  62
        -98.94655113
 C         -1.1017260639       -1.7995749931       -0.2295833695
 C         -1.2280635471       -0.6046778943       -0.9824236632
 C         -2.5458414099        0.0503539834       -0.9323626874
 C         -3.5355046692       -0.4960353930       -0.2053140556
 C         -4.9100586439        0.0844843748       -0.0429333648
 C         -4.9917450464        1.0012760612        1.1847021879
 C         -3.8732964374        2.0411877631        1.2577287610
 H         -4.0609264667        2.6605976223        2.1378918210
 H         -2.9168066577        1.5387622408        1.4231810787
 C         -3.7561858752        2.9382978345        0.0180356365
 H         -3.6204354608        3.9707293741        0.3474454381
 H         -4.6809322046        2.8992791500       -0.5599264257
 C         -2.5699285423        2.6021843571       -0.8879039269
 H         -2.4320557724        3.4324783343       -1.5871773210
 H         -1.6655491405        2.5287968903       -0.2774207897
 C         -2.7099981954        1.3199908994       -1.7193287181
 H         -3.6675335679        1.3268016038       -2.2453085479
 H         -1.9077722147        1.3151722345       -2.4632278705
 H         -4.9424660114        0.3828697441        2.0839806937
 H         -5.9589867961        1.5074921024        1.1729824851
 H         -5.1716321366        0.6400650896       -0.9414843266
 H         -5.6159140125       -0.7385398125        0.0831130083
 O         -3.3811266714       -1.6445754487        0.5020135172
 C         -2.1673915593       -2.3097691149        0.5165800402
 O         -2.1637086332       -3.3452607744        1.2146331059
 H          0.6960154014       -0.0187088361        0.4998703456
 C          1.2936732040       -0.7089043569        1.0706483793
 C          1.1388027173       -2.0736951535        0.8877490380
 C          1.9131703758       -2.9408188770        1.6512631399
 C          2.8200403625       -2.4475027316        2.5716172662
 C          2.9790883871       -1.0841290442        2.7447803886
 C          2.2045899964       -0.2091100681        1.9906141472
 N          2.3311473455        1.1729298739        2.1479772325
 S          1.6999228596        2.2777459837        1.0784303524
 O          2.3386343285        3.5234077323        1.4567168714
 O          0.2597950855        2.2775014652        1.1530072007
 C          2.2533173429        1.8237181797       -0.5555672701
 C          3.4297351731        1.1211759847       -0.7219695320
 C          3.8473588344        0.8110182880       -2.0059430652
 C          3.0932037235        1.2155142380       -3.0961487962
 C          1.9222386169        1.9320468863       -2.9122370235
 C          1.4953887395        2.2381870677       -1.6306596424
 H          0.5788901348        2.7752573932       -1.4475911820
 H          1.3315663757        2.2425747674       -3.7590453841
 H          3.4173428063        0.9669864167       -4.0947034589
 H          4.7567933555        0.2498780485       -2.1504235009
 H          4.0007002968        0.8102423814        0.1377539742
 H          3.1193739496        1.5091744770        2.6776012701
 H          3.6863394877       -0.6974246111        3.4620386110
 H          3.4120854721       -3.1307743798        3.1610368984
 H          1.7915495285       -4.0064136400        1.5290088830
 C          0.1814778740       -2.6085511854       -0.1518642462
 H         -0.1202608717       -3.6183082869        0.1600477646
 C          0.9047386142       -2.7124338072       -1.4833727751
 C          1.7430107546       -3.9172351542       -1.7807569930
 C          0.4416667139       -3.7141861656       -2.4960601809
 H          0.4567547416       -3.4354003380       -3.5386884371
 H         -0.3929438717       -4.3454710579       -2.2261581324
 H          2.6595441800       -3.7797316771       -2.3331166496
 H          1.7901771134       -4.6971938573       -1.0363212309
 H          1.2471222963       -1.7540551461       -1.8522164970
 O         -0.3081609262       -0.0943961978       -1.6735143022
