  62
        -98.94831824
 C         -0.8003189218       -1.3119810427        0.0677869985
 C         -1.6494838088       -0.9252231370        1.1302599307
 C         -2.4557629626        0.2803656632        0.9001006034
 C         -2.3248701463        0.9470730191       -0.2616872079
 C         -3.1583419236        2.1267948516       -0.6684658481
 C         -4.4237917827        1.6804569284       -1.4158265959
 C         -5.2093673542        0.5769618569       -0.7079253417
 H         -6.0926964917        0.3659297459       -1.3144921100
 H         -4.6072969362       -0.3342610834       -0.6885889258
 C         -5.6435662870        0.9250241350        0.7225473862
 H         -6.6865417211        0.6299759982        0.8555522147
 H         -5.5900236009        2.0035718434        0.8749650051
 C         -4.8387132090        0.2203047195        1.8158027212
 H         -4.8170217028       -0.8549284855        1.6207787780
 H         -5.3530670153        0.3692214357        2.7691064375
 C         -3.3942828064        0.7051995761        1.9942453836
 H         -3.3814982794        1.7908421629        2.1124187378
 H         -3.0040705467        0.2578177824        2.9136145055
 H         -4.1299780004        1.3115117175       -2.4009319093
 H         -5.0657810631        2.5519668144       -1.5558348785
 H         -2.5633604707        2.7534406586       -1.3328002372
 H         -3.4278287381        2.6991124230        0.2170697016
 O         -1.4529921723        0.5793100628       -1.2340659508
 C         -0.6712145469       -0.5580606744       -1.0986988376
 O          0.0789103063       -0.7856106210       -2.0652443896
 O         -1.7379482512       -1.5652842345        2.2143286697
 C          0.0267434704       -2.5754978864        0.2061768144
 C          1.4937983991       -2.2825639816        0.0169532910
 C          2.3525386885       -3.1317802238       -0.6702026954
 C          3.6916846757       -2.8115484451       -0.8094139939
 C          4.1997383579       -1.6408344056       -0.2781555375
 C          3.3494402319       -0.7889421863        0.4195190069
 C          2.0134101863       -1.1205938723        0.5729744128
 H          1.3657109755       -0.4568039902        1.1273615795
 N          3.8358605411        0.4040684036        0.9724564716
 S          2.8697128134        1.7238132419        1.2554602293
 O          3.8110721568        2.7996392849        1.4924844337
 O          1.9521375495        1.4592957359        2.3375062972
 C          1.9544879031        2.1048841087       -0.2300157339
 C          0.9075338792        2.9930213406       -0.0802695737
 C          0.2145846799        3.4153324685       -1.2016395397
 C          0.5648085926        2.9280643251       -2.4510160854
 C          1.6109324787        2.0309549941       -2.5846029500
 C          2.3246376585        1.6233371406       -1.4682408565
 H          3.1390905731        0.9241972323       -1.5640840310
 H          1.8732224494        1.6387163515       -3.5535716725
 H          0.0161313614        3.2442680164       -3.3242562732
 H         -0.5930869926        4.1220316583       -1.0943480774
 H          0.6552641392        3.3303975482        0.9129326023
 H          4.7748218465        0.6630608471        0.7100068470
 H          5.2409882915       -1.3838478058       -0.3982060522
 H          4.3473659697       -3.4782700765       -1.3482926075
 H          1.9724995818       -4.0431961359       -1.1012510945
 H         -0.1236956356       -2.9136145139        1.2430912234
 C         -0.4970649997       -3.6424913629       -0.7348359594
 C         -0.4262141080       -5.0919612020       -0.3600305071
 C         -1.7459109466       -4.3825781322       -0.3634673578
 H         -2.4586148003       -4.6165720993       -1.1400866713
 H         -2.1999186914       -4.1390100423        0.5862645111
 H         -0.2352383078       -5.8171637603       -1.1367283531
 H          0.0100553400       -5.3414434927        0.5954495377
 H         -0.3661239895       -3.3740660270       -1.7773232222
