  62
        -98.95136645
 C          1.8216421314        1.2562987881       -0.2873842519
 C          2.9131978884        0.5746546693        0.2978000938
 C          3.2294448664       -0.7361688853       -0.2778455823
 C          2.5040072254       -1.2051537489       -1.3096548364
 C          2.6901224261       -2.5336074594       -1.9900317479
 C          1.9769612785       -3.6854285889       -1.2680065316
 C          2.6519336255       -4.1561530587        0.0210190156
 H          2.1954877537       -5.1106738112        0.2909164693
 H          3.7109492779       -4.3401934918       -0.1662111310
 C          2.4928667540       -3.1879209280        1.2016629034
 H          2.2200957531       -3.7508158260        2.0981733514
 H          1.6638985655       -2.5045220591        0.9989103949
 C          3.7485815879       -2.3827929353        1.5392275374
 H          4.5327488405       -3.0594291839        1.8877007795
 H          3.5048612062       -1.7000419747        2.3575534436
 C          4.3047142944       -1.5498773938        0.3769767767
 H          5.0481306086       -0.8567088400        0.7791866858
 H          4.7890743969       -2.1987368422       -0.3523599197
 H          0.9534024929       -3.3741904446       -1.0420980422
 H          1.9285913591       -4.5295744055       -1.9602701227
 H          2.2628511100       -2.4351922974       -2.9902540598
 H          3.7527944570       -2.7593000510       -2.0842859632
 O          1.4942112177       -0.4971452488       -1.8770176282
 C          1.0947759793        0.7179799491       -1.3484719631
 O          0.1049226912        1.2244740487       -1.9136416842
 H          0.2267092096        0.4231927017        1.4603241065
 C         -0.4906698416        1.2191024140        1.3224444877
 C         -0.0907565527        2.4225618097        0.7554486762
 C         -1.0375468432        3.4291211364        0.6107630727
 C         -2.3515140095        3.2190983388        0.9939302530
 C         -2.7558681053        1.9972126724        1.5001202103
 C         -1.8131736120        0.9886512811        1.6591948286
 N         -2.1655285094       -0.2962731478        2.1284922852
 S         -2.0293656244       -1.5337767753        0.9999114367
 O         -2.5060306068       -2.7192970788        1.6805747527
 O         -0.6864129772       -1.5903279827        0.4873036906
 C         -3.1958690030       -1.0733057178       -0.2685874756
 C         -2.8315240756       -0.1519012946       -1.2295802513
 C         -3.7861766230        0.2620218939       -2.1471869913
 C         -5.0752623606       -0.2436343878       -2.0876359728
 C         -5.4234558199       -1.1696685452       -1.1153383298
 C         -4.4778692271       -1.5848478343       -0.1926037700
 H         -4.6996244665       -2.3041509835        0.5794404424
 H         -6.4256677933       -1.5646554926       -1.0718862188
 H         -5.8114323036        0.0857167990       -2.8039003288
 H         -3.5069865539        0.9818345431       -2.8998629733
 H         -1.8212757068        0.2270893999       -1.2649994349
 H         -3.0882585159       -0.3368197749        2.5408890861
 H         -3.7873573530        1.8212877906        1.7662688098
 H         -3.0750920598        4.0107662333        0.8739760354
 H         -0.7475211715        4.3774412760        0.1885342187
 C          1.3482010103        2.5635759658        0.3207134519
 H          1.9717556902        2.7166530612        1.2146977150
 C          1.5740320275        3.7162060536       -0.6358975769
 C          1.8735827624        5.0894103708       -0.1147421810
 C          2.9542116553        4.2841093813       -0.7692444772
 H          3.2987058082        4.5774746477       -1.7494532892
 H          3.7259579676        3.8566107233       -0.1457862458
 H          1.9198147051        5.2196031768        0.9559161421
 H          1.4786114663        5.9409755059       -0.6480133840
 H          0.9802202935        3.6264971124       -1.5386802204
 O          3.5827983984        1.0361092545        1.2628043533
