  62
        -98.94360093
 C         -1.5657715100       -1.4546532307        0.0358678900
 C         -2.1170673899       -0.5354736513        0.9609122806
 C         -3.1197916002        0.3895585388        0.4218347214
 C         -3.4619507105        0.3201375796       -0.8773916385
 C         -4.4614882708        1.2025082898       -1.5748397478
 C         -3.8817578311        2.5459817902       -2.0399736971
 C         -3.5943454111        3.5553904396       -0.9270723965
 H         -3.4037428414        4.5161206499       -1.4097207860
 H         -4.4841172310        3.6738205890       -0.3080284462
 C         -2.3914173508        3.2018842892       -0.0403706770
 H         -1.7689003610        4.0888296893        0.0972814334
 H         -1.7735883908        2.4550130597       -0.5454105076
 C         -2.7596111804        2.6821033683        1.3494528228
 H         -1.8371300503        2.4147420382        1.8697562524
 H         -3.2559686805        3.4724476479        1.9164217134
 C         -3.6644462802        1.4437042882        1.3374994622
 H         -3.6885507699        1.0271776175        2.3472634919
 H         -4.6783845503        1.7165796682        1.0468109626
 H         -4.6047485414        2.9923280805       -2.7267056666
 H         -2.9654973812        2.3541108407       -2.6039348074
 H         -4.8035458309        0.6526537003       -2.4542817980
 H         -5.3164468707        1.3793250193       -0.9218631975
 O         -2.9245277505       -0.5930942998       -1.7304463492
 C         -1.9501741703       -1.4877093599       -1.3045362300
 O         -1.5165379603       -2.2371634793       -2.1998964505
 H          0.4161190696       -0.1234883499       -0.5871921397
 C          1.1404820898       -0.9249282097       -0.6703617103
 C          0.8235424401       -2.1835160601       -0.1770974910
 C          1.7786201503       -3.1885355299       -0.2873565518
 C          3.0065444301       -2.9390645993       -0.8756584920
 C          3.3119608498       -1.6846283389       -1.3727358113
 C          2.3638695096       -0.6772011591       -1.2745824204
 N          2.6835775093        0.6169541812       -1.7579590697
 S          3.6333363193        1.5112383807       -0.7035076993
 O          3.7515948790        2.8275424711       -1.2873182386
 O          4.8601203195        0.7920971208       -0.4787879101
 C          2.6731910696        1.5891263796        0.7967243109
 C          1.8506982995        2.6776346894        1.0073229918
 C          1.0305257997        2.6921904885        2.1238341920
 C          1.0293277801        1.6120342780        2.9931613913
 C          1.8585568003        0.5250615583        2.7651216804
 C          2.6917410400        0.5097260391        1.6579874602
 H          3.3545976601       -0.3152860506        1.4520582696
 H          1.8493072406       -0.3143175621        3.4414578399
 H          0.3729988603        1.6106843273        3.8490237214
 H          0.3907285896        3.5407859583        2.3079236826
 H          1.8765195492        3.4929561198        0.3017742923
 H          1.8647998291        1.1615903612       -1.9916952492
 H          4.2668822996       -1.4659840285       -1.8215337013
 H          3.7347771402       -3.7321451391       -0.9494849626
 H          1.5587811405       -4.1729086401        0.0929565776
 C         -0.4966255597       -2.4114879508        0.5195893791
 H         -0.3555632395       -2.1688104914        1.5846441692
 C         -0.9747979295       -3.8466536908        0.4100346083
 C         -0.6113363591       -4.8572767314        1.4557203376
 C         -2.0131634192       -4.3354714316        1.3739849283
 H         -2.7911307791       -4.9882436815        1.0076830780
 H         -2.3464578891       -3.6437112721        2.1338911988
 H         -0.4265761189       -5.8749639111        1.1459603770
 H         -0.0009451889       -4.5280986718        2.2831478677
 H         -1.0533730296       -4.1791774202       -0.6189130018
 O         -1.7807434097       -0.4867196220        2.1731502106
