  62
        -98.94939432
 C         -1.4205276065       -1.4892326826       -0.2864761695
 C         -2.6323070673       -1.0372521155        0.2837174812
 C         -3.1522299003        0.2299868536       -0.2414472982
 C         -2.4721836221        0.8836946454       -1.2004157882
 C         -2.8566115052        2.2004339348       -1.8185678775
 C         -2.4260824475        3.4162647355       -0.9856715873
 C         -3.2657321176        3.6746226532        0.2660470232
 H         -3.0228998196        4.6818501336        0.6108400734
 H         -4.3251316277        3.6640500009        0.0056886936
 C         -3.0018665750        2.6902411533        1.4139877027
 H         -2.0402784440        2.1952944855        1.2553832921
 H         -2.9137255958        3.2440710631        2.3522606829
 C         -4.0917922826        1.6367237208        1.6150652327
 H         -5.0152094335        2.1244425287        1.9374684533
 H         -3.7700902208        0.9634925613        2.4140112224
 C         -4.3992856012        0.7884492906        0.3747871025
 H         -5.0209630793       -0.0552017208        0.6861036425
 H         -4.9519427628        1.3790476897       -0.3558671270
 H         -2.4899618297        4.2959778056       -1.6307881569
 H         -1.3808743171        3.2918940876       -0.6894107077
 H         -3.9342469853        2.2329395925       -1.9824180471
 H         -2.3558526557        2.2492551463       -2.7880476877
 O         -1.3256968512        0.3994464981       -1.7462757788
 C         -0.7579012085       -0.7814030908       -1.2887216995
 O          0.3100029420       -1.0903753182       -1.8499348100
 O         -3.2471593856       -1.6606774771        1.1923139112
 C         -0.7582492036       -2.7387246414        0.2603470898
 C          0.6430187259       -2.4189485985        0.7238635393
 C          1.6993124478       -3.3157380261        0.6171836086
 C          2.9679220972       -2.9609034835        1.0423762882
 C          3.2168962147       -1.7028083832        1.5599468686
 C          2.1651441628       -0.8026224655        1.6793578193
 C          0.8902238834       -1.1752937081        1.2900017797
 H          0.0861729919       -0.4629810799        1.4010436003
 N          2.3608421801        0.4977833147        2.1867519198
 S          1.8704483069        1.7856189440        1.2365625904
 O          2.4848975447        2.9413014551        1.8592013206
 O          0.4345285268        1.8200729509        1.1326964610
 C          2.6113319569        1.5296222362       -0.3654427900
 C          1.8266677063        1.5740412249       -1.4971058696
 C          2.4204322262        1.3822211867       -2.7344938199
 C          3.7831943767        1.1493549097       -2.8172091506
 C          4.5626892372        1.1181437010       -1.6704958109
 C          3.9742013973        1.3118120992       -0.4324909006
 H          4.5573268677        1.3088889502        0.4741883892
 H          5.6241728276        0.9418358333       -1.7386778314
 H          4.2404642667        0.9932249111       -3.7815815608
 H          1.8092256358        1.4029312757       -3.6222944097
 H          0.7670526860        1.7423763226       -1.3956615292
 H          3.2926847999        0.6666279166        2.5389939194
 H          4.2111813342       -1.4196186511        1.8703616783
 H          3.7779483087       -3.6684178317        0.9527756276
 H          1.5293261398       -4.2925966463        0.1945014183
 H         -1.3578514426       -3.0344538330        1.1348875099
 C         -0.8024782115       -3.8576696111       -0.7611450706
 C         -0.9406155982       -5.2848976015       -0.3242435411
 C         -2.0939887400       -4.5862469838       -0.9771151304
 H         -2.3677147298       -4.8649650840       -1.9835789704
 H         -2.9327768704       -4.2947395959       -0.3618111899
 H         -0.4232784368       -6.0482523802       -0.8857494116
 H         -1.0049483674       -5.4811420721        0.7354173589
 H         -0.1958311923       -3.6430352994       -1.6338709008
