  62
        -98.93741698
 C         -2.1949753832       -1.3131972654       -0.1157055334
 C         -2.6094650884       -0.1964349281       -0.8786404972
 C         -3.9904904336        0.2667250856       -0.6544527665
 C         -4.7730315230       -0.3820657191        0.2244784975
 C         -6.2137197766       -0.1078048271        0.5760973350
 C         -6.6226538684        1.3568947688        0.7881429874
 C         -5.5253441812        2.2621697782        1.3668393297
 H         -5.9292914903        2.8056039210        2.2230942112
 H         -4.6916083212        1.6581388116        1.7289733803
 C         -5.0081727688        3.2926206354        0.3599091169
 H         -4.5308940579        4.1092806726        0.9069819818
 H         -5.8602705990        3.7142631550       -0.1779103840
 C         -3.9877576372        2.7703177563       -0.6510917942
 H         -3.0386303243        2.5636033527       -0.1481842625
 H         -3.7966707643        3.5648938464       -1.3766222963
 C         -4.3990179158        1.4980807683       -1.4101593287
 H         -5.4626755505        1.4995883847       -1.6357627241
 H         -3.8421519202        1.4746459455       -2.3508547756
 H         -7.4812086756        1.3502946910        1.4617639276
 H         -6.9679631778        1.7789899772       -0.1546456047
 H         -6.3947835782       -0.6746260642        1.4924205966
 H         -6.8439042012       -0.5456482107       -0.2033704409
 O         -4.3337310553       -1.4625111620        0.9302446764
 C         -3.0433074707       -1.9420797905        0.7947745128
 O         -2.7759673489       -2.9167347472        1.5262556746
 O         -1.8733840928        0.3848075824       -1.7177325371
 C         -0.7802871719       -1.8524320716       -0.2459929681
 C          0.1883617307       -0.7727900712        0.1707964149
 C          0.1683907988       -0.3398144570        1.4945751798
 C          1.0090466503        0.6695504193        1.9221641342
 C          1.8882404120        1.2718859216        1.0385476776
 C          1.9197263768        0.8438277671       -0.2813016081
 C          1.0827184101       -0.1815649798       -0.7060070850
 H          1.1147499458       -0.4951001832       -1.7371345942
 N          2.8096516745        1.4480907694       -1.1827632039
 S          4.3794560494        1.7361808222       -0.6890414613
 O          4.4274117427        2.9223662515        0.1290475418
 O          5.1570504577        1.7771195097       -1.9073373277
 C          4.8231422744        0.3098400605        0.2871173673
 C          5.1176209978        0.4536490658        1.6273360798
 C          5.4267370355       -0.6744944938        2.3705907154
 C          5.4323200649       -1.9207084181        1.7641170333
 C          5.1371635643       -2.0486365677        0.4152289400
 C          4.8280300387       -0.9244107823       -0.3324471328
 H          4.6010184023       -0.9887657326       -1.3843653964
 H          5.1441221993       -3.0191407952       -0.0544530779
 H          5.6692035514       -2.7982670448        2.3447933228
 H          5.6586692986       -0.5779945079        3.4190280142
 H          5.1015093925        1.4408627041        2.0596239288
 H          2.7697559993        1.0750910766       -2.1191973156
 H          2.5363553538        2.0753810701        1.3484840190
 H          0.9775799359        0.9965645608        2.9504721554
 H         -0.5265503206       -0.8039915130        2.1815485618
 H         -0.7045399965       -2.6755592522        0.4779366106
 C         -0.5383234236       -2.4020496943       -1.6354726812
 C          0.5685452167       -3.3864108311       -1.8626202624
 C         -0.8594746986       -3.8383450738       -1.9137001405
 H         -1.2874937659       -4.0939349310       -2.8715026189
 H         -1.2412964740       -4.4303260608       -1.0946499287
 H          1.1225986617       -3.3380628338       -2.7879140313
 H          1.1594934268       -3.6760717403       -1.0071763024
 H         -0.7572307791       -1.6850861264       -2.4179770016
