  62
        -98.94177911
 C         -2.7834865581       -0.4732598207       -0.2473956439
 C         -2.1232798527        0.4116736592       -1.1345525193
 C         -2.2805661946        1.8458740337       -0.8509940295
 C         -3.0469970249        2.2416008240        0.1799776153
 C         -3.2599621909        3.6663297696        0.5999586497
 C         -2.2395109350        4.0970321893        1.6622901788
 C         -0.7899822646        3.7641922515        1.3066655245
 H         -0.1608911481        4.1579651535        2.1084738739
 H         -0.6521910586        2.6795593535        1.3047155491
 C         -0.3152718879        4.3311617950       -0.0382262784
 H          0.6818509365        4.7547787324        0.0980623125
 H         -0.9743244858        5.1411326286       -0.3545593312
 C         -0.2075896287        3.2918750608       -1.1559369889
 H          0.3658071903        3.7328738950       -1.9761964083
 H          0.3503717835        2.4262347949       -0.7867555715
 C         -1.5412037611        2.8057145299       -1.7395645795
 H         -2.1682439163        3.6637292367       -1.9907254457
 H         -1.3242046009        2.2567355599       -2.6604170619
 H         -2.4831933394        3.5948902408        2.6014760359
 H         -2.3378523209        5.1732847433        1.8167672754
 H         -3.1845141688        4.3111265558       -0.2734138103
 H         -4.2639916761        3.7527579360        1.0191969371
 O         -3.6980375338        1.3672623837        0.9888802667
 C         -3.5560232869        0.0025097143        0.8174750467
 O         -4.1734417922       -0.6824515116        1.6581271520
 H         -0.1586204086       -1.3926126935       -1.1466029438
 C         -0.1522291643       -1.9830370492       -0.2423437910
 C         -1.3557779998       -2.4065434902        0.3032704010
 C         -1.3238724588       -3.1483287477        1.4780847910
 C         -0.1197350332       -3.4429390239        2.0951070900
 C          1.0752184091       -2.9892654683        1.5645275650
 C          1.0501744309       -2.2500728831        0.3905882546
 N          2.2627728560       -1.7172463647       -0.1274675544
 S          2.7179127772       -0.3363772879        0.7472858783
 O          2.9704796858       -0.7373832195        2.1083427105
 O          1.7446726174        0.7190886665        0.5649923539
 C          4.2528588046        0.0884693673       -0.0526877281
 C          5.3699374452       -0.6751971503        0.2267731009
 C          6.5622527018       -0.3751581109       -0.4118374621
 C          6.6166623433        0.6768112078       -1.3144741680
 C          5.4866494048        1.4334033426       -1.5847647340
 C          4.2899185609        1.1371253405       -0.9505949896
 H          3.3872544503        1.7008582607       -1.1264262777
 H          5.5314481162        2.2514660358       -2.2856167924
 H          7.5460207559        0.9096891479       -1.8098578495
 H          7.4435257660       -0.9603460389       -0.2042844798
 H          5.2804675725       -1.4769670522        0.9405464082
 H          2.1265401838       -1.4199693254       -1.0873722066
 H          2.0155399367       -3.1732103578        2.0574401036
 H         -0.1134404615       -4.0172652094        3.0092361409
 H         -2.2546115451       -3.4701223443        1.9230194547
 C         -2.6627473663       -1.9899421685       -0.3285448057
 H         -3.4779064877       -2.3877778856        0.2904233650
 C         -2.8139434215       -2.5400555187       -1.7324604621
 C         -3.1909691328       -3.9792386811       -1.9081758359
 C         -4.1789910986       -2.9001725539       -2.2328529970
 H         -4.4144435689       -2.7069590923       -3.2685457098
 H         -5.0120671793       -2.7513590511       -1.5610820301
 H         -3.3560958692       -4.5650254201       -1.0165386787
 H         -2.7467591534       -4.5315388850       -2.7218409620
 H         -2.1236184656       -2.1075075626       -2.4438887591
 O         -1.4315771892        0.0506466500       -2.1255877936
