  62
        -98.93457297
 C          2.2363742123        1.2632636537        0.2972343666
 C          2.5254898168        0.2796923107       -0.6761994511
 C          3.4270217801       -0.8199914333       -0.2676427476
 C          3.8819747490       -0.8580555193        0.9976337720
 C          4.8257514615       -1.8510829982        1.6212493078
 C          6.2877855997       -1.6205529811        1.2031513582
 C          6.4939559179       -1.3152210559       -0.2783432484
 H          5.9033344731       -0.4379748742       -0.5487557825
 H          7.5459393566       -1.0541679229       -0.4201850377
 C          6.1654768116       -2.4618982887       -1.2312672716
 H          6.4252544712       -2.1311574876       -2.2401076979
 H          6.7972293914       -3.3197317113       -0.9901735530
 C          4.7073727736       -2.9244434824       -1.2436747767
 H          4.4821593351       -3.5331221208       -0.3720530179
 H          4.5791130458       -3.5733388363       -2.1152268509
 C          3.6811296152       -1.8042944128       -1.3847025746
 H          3.9282694120       -1.2021328409       -2.2665002226
 H          2.7057692447       -2.2551364318       -1.6078031669
 H          6.6700514146       -0.7703646236        1.7731832412
 H          6.8689174690       -2.5014736594        1.4804244736
 H          4.7480980865       -1.7194337119        2.7027620255
 H          4.5082903276       -2.8634218362        1.3889836025
 O          3.5488929773        0.0942319264        1.9149507912
 C          2.7362890523        1.1621980096        1.5984717550
 O          2.5345886550        1.9522113789        2.5424838576
 H         -0.0424732084        0.5271365481       -1.2038758002
 C         -0.6534664999        1.0555365997       -0.4863482234
 C         -0.0965862575        2.1057966975        0.2315031147
 C         -0.8896408366        2.7722313556        1.1572313835
 C         -2.2067001578        2.3945218421        1.3557196141
 C         -2.7580770588        1.3493848184        0.6362679441
 C         -1.9712663125        0.6737672331       -0.2875890663
 N         -2.5209596286       -0.3926330462       -1.0258957978
 S         -3.1975062247       -1.6525354842       -0.1424876379
 O         -2.5807590784       -1.7768842119        1.1590489686
 O         -3.1196723929       -2.8116084921       -1.0049569738
 C         -4.9039298406       -1.1739071552        0.0305839008
 C         -5.4790004426       -1.1127922572        1.2847234360
 C         -6.8118102305       -0.7467128638        1.3933249642
 C         -7.5413341657       -0.4503754293        0.2521566532
 C         -6.9490683589       -0.5181867731       -1.0003893836
 C         -5.6179278132       -0.8851343465       -1.1161780331
 H         -5.1204878906       -0.9530163336       -2.0692325236
 H         -7.5194785256       -0.2864468141       -1.8853746521
 H         -8.5776724157       -0.1646432423        0.3395392437
 H         -7.2735877039       -0.6935776252        2.3661668674
 H         -4.8698877920       -1.3450243601        2.1438400858
 H         -1.8809096790       -0.7593601145       -1.7170913354
 H         -3.7816516234        1.0484106530        0.7898384569
 H         -2.8104461513        2.9186869452        2.0806811662
 H         -0.4609751078        3.5767898990        1.7367435094
 C          1.3514259719        2.4726602112        0.0326203043
 H          1.6204498149        3.1957996317        0.8181957668
 C          1.6362687952        3.1321506561       -1.3111182312
 C          0.6358010391        3.2339486514       -2.4199806055
 C          1.0057494261        4.4543414351       -1.6358046099
 H          1.6090453820        5.2153105244       -2.1069956664
 H          0.2765624567        4.8365455626       -0.9372146459
 H          1.0017238464        3.1325809788       -3.4304684884
 H         -0.3446612675        2.8109186539       -2.2687019051
 H          2.6702896214        3.0023734769       -1.6134513162
 O          2.0694287126        0.2922903730       -1.8506165896
