  62
        -98.93913278
 C         -2.0013461395       -1.7341747005       -0.1082515622
 C         -2.6423608097       -1.0814885817        0.9796372384
 C         -3.7300038997       -0.1590352114        0.6464392192
 C         -4.1075918296       -0.0197278001       -0.6365888607
 C         -5.1892852696        0.8921789303       -1.1485935799
 C         -4.7174314897        2.3336181606       -1.3848525784
 C         -4.4622781499        3.1507133393       -0.1173440975
 H         -4.3526135399        4.1924747797       -0.4253095264
 H         -5.3358400399        3.0925561886        0.5327661923
 C         -3.2079572399        2.7348407786        0.6648489222
 H         -2.6381298200        3.6251290684        0.9413728031
 H         -2.5584554098        2.1341251093        0.0226763516
 C         -3.4907572400        1.9584854073        1.9516194714
 H         -2.5326586000        1.6802724269        2.3985994112
 H         -4.0201086601        2.6020064765        2.6578434020
 C         -4.3079692999        0.6757320574        1.7483770600
 H         -4.2623215599        0.0898176765        2.6694620594
 H         -5.3487520499        0.9200012476        1.5374605901
 H         -3.8077143496        2.3087559913       -1.9902692183
 H         -5.4905183897        2.8392312211       -1.9682513479
 H         -6.0305311897        0.8914503096       -0.4550476000
 H         -5.5221701195        0.4775699713       -2.1025125603
 O         -3.5379640595       -0.7337470591       -1.6397096014
 C         -2.4556628694       -1.5872326992       -1.4184515221
 O         -2.0553482893       -2.1373336181       -2.4601760727
 O         -2.3068353498       -1.2659138628        2.1798873582
 C         -0.7919772695       -2.5716825708        0.2814027470
 C          0.1948697104       -1.7003222815        1.0221696180
 C          0.8835328503       -2.1864606626        2.1284847476
 C          1.7933114402       -1.3913310932        2.8005842985
 C          2.0481065301       -0.1013416727        2.3701711398
 C          1.3661431702        0.3945047183        1.2659483703
 C          0.4440674603       -0.4018501811        0.6023146494
 H         -0.0886688396        0.0070447698       -0.2445206703
 N          1.5981493501        1.7047416488        0.7944415816
 S          2.3019843303        1.8518902004       -0.7174258082
 O          2.4784552302        3.2714206706       -0.9253228867
 O          1.5119352304        1.1449417914       -1.6915076590
 C          3.8961327903        1.0735797203       -0.5231157388
 C          4.9982284402        1.8618244601       -0.2543921479
 C          6.2211756703        1.2505187700       -0.0291969984
 C          6.3180615104       -0.1323907900       -0.0651107198
 C          5.2015090904       -0.9100141598       -0.3316688807
 C          3.9763378504       -0.3043560696       -0.5623984902
 H          3.0899441605       -0.8780512395       -0.7791360409
 H          5.2756418905       -1.9850986397       -0.3609892718
 H          7.2691522904       -0.6081237701        0.1144529898
 H          7.0914533302        1.8529650998        0.1755821123
 H          4.8750048302        2.9327349401       -0.2393850768
 H          2.0981743100        2.2882597082        1.4513846723
 H          2.7570072900        0.5242885668        2.8915605105
 H          2.3108750501       -1.7785603740        3.6646597381
 H          0.6829560803       -3.1903781029        2.4724688765
 H         -1.1505772195       -3.3300112716        0.9986913862
 C         -0.1267595893       -3.3156556796       -0.8650623337
 C          0.8664899807       -2.6630454786       -1.7742263429
 C          1.3198156107       -3.7103627496       -0.8039012739
 H          1.5984027008       -4.6779790391       -1.1926972249
 H          1.8973835106       -3.3914547504        0.0507124565
 H          0.8143052708       -2.9058583375       -2.8246803632
 H          1.1154305306       -1.6272048588       -1.5951524818
 H         -0.8041570193       -4.0194110292       -1.3348003344
