  62
        -98.93874671
 C         -2.5462504383       -0.1482274525        0.4971142051
 C         -2.4329034778        0.5936994096       -0.7006181044
 C         -2.1043660390        2.0240616806       -0.5633777719
 C         -1.8896808230        2.5370275886        0.6621747001
 C         -1.5318189422        3.9378693411        1.1138894753
 C         -1.1369229228        5.0063575236        0.0989472618
 C          0.2218782279        4.7826606888       -0.5655130827
 H          0.3412766859        5.5260573871       -1.3570289799
 H          1.0017758941        4.9593264568        0.1795427756
 C          0.4612626243        3.3926807328       -1.1509764679
 H          0.4352147187        2.6392282919       -0.3601705787
 H          1.4749133428        3.3784253736       -1.5619104523
 C         -0.4923700187        2.9786283260       -2.2692242030
 H         -0.1355686599        2.0242485410       -2.6666631150
 H         -0.4573539755        3.7151641227       -3.0751872600
 C         -1.9579385658        2.7836480350       -1.8510039330
 H         -2.4838360836        3.7338589241       -1.8003825082
 H         -2.4470877318        2.1758227210       -2.6181938729
 H         -1.0822041375        5.9510661626        0.6469643352
 H         -1.9178337908        5.1206588703       -0.6470430050
 H         -0.7204470797        3.8150912379        1.8391384997
 H         -2.3989615518        4.2966016164        1.6796812497
 O         -2.0216646342        1.7805439592        1.7934414079
 C         -2.3220857406        0.4326988869        1.7419150688
 O         -2.3685347512       -0.1293969949        2.8576753421
 O         -2.5980927346        0.0878473107       -1.8420713380
 C         -2.7715446672       -1.6476073494        0.4384258940
 C         -1.6355706916       -2.2887676196       -0.3257925184
 C         -1.8021904174       -3.3537001607       -1.2009737380
 C         -0.7111713862       -3.8822841070       -1.8707406471
 C          0.5565296700       -3.3609079348       -1.6923616765
 C          0.7331356324       -2.2921152603       -0.8184278725
 C         -0.3552341109       -1.7872998187       -0.1293671582
 H         -0.2060306431       -0.9727850849        0.5642167776
 N          1.9949449793       -1.6946284074       -0.6633649924
 S          2.3368879189       -0.7214020120        0.6656989463
 O          2.1583751875       -1.4663815557        1.8943799886
 O          1.6111749248        0.5180017067        0.5523999387
 C          4.0711669646       -0.4279920404        0.3761676969
 C          5.0148609987       -1.1870765973        1.0416146462
 C          6.3583079210       -0.9656116223        0.7812931609
 C          6.7327495645        0.0038245135       -0.1368102434
 C          5.7740722162        0.7593210449       -0.7958388464
 C          4.4295387422        0.5434891716       -0.5391630782
 H          3.6477939628        1.1098120202       -1.0185370391
 H          6.0685771190        1.5145175662       -1.5065175257
 H          7.7785681645        0.1739651915       -0.3380424972
 H          7.1057478153       -1.5485403286        1.2947923061
 H          4.6762213749       -1.9226959150        1.7534020545
 H          2.7652843681       -2.3046271201       -0.8979044619
 H          1.4007586581       -3.7645082576       -2.2296397726
 H         -0.8528418808       -4.7105227487       -2.5484471676
 H         -2.7849485185       -3.7656634962       -1.3627565548
 H         -2.7251437115       -2.0033624408        1.4794306638
 C         -4.1369743842       -1.9711657809       -0.1311041910
 C         -4.8742487563       -3.1960322125        0.3177627957
 C         -5.3381693400       -1.8399734966        0.7546161690
 H         -6.2490522295       -1.4426584383        0.3329977504
 H         -5.1653762144       -1.5434604444        1.7793927916
 H         -5.4723846830       -3.7313715916       -0.4041322115
 H         -4.3965691719       -3.8264610326        1.0527537188
 H         -4.2383711963       -1.6582267475       -1.1636651500
