  62
        -98.93398548
 C          1.9852490313       -0.4697040335       -0.9974191809
 C          2.8309855892       -1.0413137981       -0.0184716005
 C          4.2306905366       -0.5595826250        0.0146402606
 C          4.6186384220        0.3884209799       -0.8569921204
 C          5.9624472190        1.0569649848       -0.9771307223
 C          6.2047151034        2.1029748963        0.1227070959
 C          5.8039574684        1.6618249293        1.5278928361
 H          4.7445328183        1.3990854436        1.5321703976
 H          5.9266452246        2.5209943477        2.1927663761
 C          6.6179632312        0.5053215566        2.1033760225
 H          6.2910126013        0.3619580118        3.1364671368
 H          7.6732151643        0.7865757856        2.1260345956
 C          6.4862897952       -0.8337854826        1.3744665429
 H          6.9068058278       -1.6025045811        2.0294999498
 H          7.0807311978       -0.8464662233        0.4648420964
 C          5.0517930269       -1.2559254552        1.0736034474
 H          4.4628623566       -1.2037457095        1.9962865748
 H          5.0526350283       -2.3163889068        0.7938861557
 H          5.6225947335        2.9942094175       -0.1247663801
 H          7.2611214031        2.3768549617        0.1115063348
 H          6.7523376892        0.3117694254       -0.9834974869
 H          5.9745959857        1.5623338750       -1.9454901422
 O          3.7624756270        0.9214356058       -1.7764450075
 C          2.4486165566        0.5158486261       -1.8718991690
 O          1.7956441725        1.0890096298       -2.7687970369
 H         -1.6350112431        0.6016016110       -1.8792280758
 C         -1.4397803477        0.6621486128       -0.8169553578
 C         -0.3535294171       -0.0151694038       -0.2830673143
 C         -0.1088926127        0.0863525193        1.0828966290
 C         -0.9272855671        0.8578304237        1.8875216256
 C         -2.0093170492        1.5338962029        1.3509035866
 C         -2.2668931000        1.4317745284       -0.0091767195
 N         -3.3950274968        2.0852608279       -0.5463513519
 S         -4.8683299268        1.6247009565        0.1159363408
 O         -5.8606695353        1.9525152371       -0.8821096178
 O         -5.0276996549        2.2512988630        1.4030712365
 C         -4.7137296049       -0.1418686788        0.3031098805
 C         -4.8526715432       -0.9308215356       -0.8217744075
 C         -4.6311294199       -2.2942064041       -0.7162171567
 C         -4.2618900600       -2.8406987317        0.5034849833
 C         -4.1309606774       -2.0357809015        1.6240258105
 C         -4.3581933720       -0.6722324659        1.5267515617
 H         -4.2696662027       -0.0139339324        2.3749879005
 H         -3.8451659609       -2.4642290434        2.5711359632
 H         -4.0720739482       -3.8993035253        0.5793476847
 H         -4.7370464187       -2.9245717324       -1.5845383151
 H         -5.1413984918       -0.4684323666       -1.7524028410
 H         -3.4400042044        2.0396418966       -1.5545824722
 H         -2.6622936045        2.1343718990        1.9636222591
 H         -0.7224377427        0.9324710729        2.9447602836
 H          0.7256933277       -0.4527084360        1.5043293845
 C          0.5257785512       -0.8559444161       -1.1718623282
 H          0.2877320335       -0.5937317596       -2.2148842489
 C          0.2713222205       -2.3495359808       -1.0100433890
 C         -0.5698924666       -2.9343787205        0.0811249530
 C         -1.0865850558       -2.9052466082       -1.3234177140
 H         -1.1525809771       -3.8302468032       -1.8754476745
 H         -1.8703216046       -2.1969969875       -1.5480849086
 H         -1.0168994616       -2.2654045756        0.7994042606
 H         -0.2524153796       -3.8762801605        0.5009077735
 H          1.1231961272       -2.9411239657       -1.3275949677
 O          2.4623912415       -1.9136620245        0.8087220234
