  62
        -98.94486671
 C         -1.6028665116       -1.2401205768       -0.3831534873
 C         -1.4715691331        0.1699576052       -0.3895981506
 C         -2.4879673222        0.9112357215        0.3697915784
 C         -3.4511168153        0.2515609695        1.0357161290
 C         -4.5421213199        0.8696044733        1.8675955044
 C         -5.7527940207        1.3487025355        1.0543251823
 C         -5.5227910289        2.6112022907        0.2222756820
 H         -6.5032172314        2.9562608758       -0.1121616347
 H         -5.1024769667        3.3912885048        0.8578596268
 C         -4.6262534261        2.4067783541       -1.0069217626
 H         -4.5584853708        1.3405178920       -1.2343247904
 H         -5.0812753746        2.8915234403       -1.8735344854
 C         -3.2128081037        2.9710889496       -0.8617782960
 H         -3.2592602254        4.0581951684       -0.7661719444
 H         -2.6541783138        2.7348611833       -1.7706076399
 C         -2.4334584310        2.4088795861        0.3338342880
 H         -1.3843963082        2.7006770209        0.2379659076
 H         -2.8198406319        2.8233147225        1.2650193863
 H         -6.5604989143        1.5484957155        1.7622820051
 H         -6.0772419066        0.5354761195        0.4010095045
 H         -4.1357390976        1.7006845320        2.4452421427
 H         -4.8776939706        0.0964387343        2.5623605828
 O         -3.5342797108       -1.1056363204        1.0368837767
 C         -2.6250408971       -1.8738792167        0.3304722438
 O         -2.8336482983       -3.1022958583        0.4062910634
 O         -0.5716569584        0.8048183545       -0.9982667342
 C         -0.6404380671       -2.1820963764       -1.0930670760
 C          0.5347523795       -2.4753522917       -0.1897727893
 C          0.7357415935       -3.7573330383        0.3076111465
 C          1.7871565964       -4.0197168534        1.1674484172
 C          2.6448464990       -3.0072527981        1.5541204056
 C          2.4530411303       -1.7189722257        1.0626164057
 C          1.4132742897       -1.4654012059        0.1802858768
 H          1.2578772467       -0.4645972926       -0.1848385166
 N          3.3253970990       -0.6914470604        1.4381375200
 S          2.8620709756        0.9134587746        1.5834190839
 O          3.7465429122        1.4354976173        2.6071018155
 O          1.4490266723        1.0468233198        1.8404477187
 C          3.3420357617        1.6241922946        0.0227685042
 C          2.4037413793        1.9714371452       -0.9265131469
 C          2.8401616300        2.5085959244       -2.1291502844
 C          4.1942610161        2.6896271867       -2.3599193560
 C          5.1245650740        2.3382240043       -1.3926854382
 C          4.6966265845        1.8009810277       -0.1906859483
 H          5.3831415651        1.5271548816        0.5931305876
 H          6.1778923553        2.4812528203       -1.5727448667
 H          4.5254649760        3.1077023617       -3.2975928247
 H          2.1125078479        2.7786416321       -2.8780181576
 H          1.3543792242        1.8122299106       -0.7311710552
 H          3.9999095375       -0.9458442164        2.1441271647
 H          3.4562455613       -3.2064421528        2.2378286076
 H          1.9325069596       -5.0186493756        1.5502099120
 H          0.0471959742       -4.5434454406        0.0339795489
 H         -1.1942627267       -3.1213031306       -1.2297425906
 C         -0.1860959418       -1.6955754338       -2.4540739503
 C          0.3147743943       -2.6982289137       -3.4482062750
 C         -1.0079306477       -2.0264794496       -3.6617297239
 H         -1.0943979353       -1.2870390793       -4.4435053014
 H         -1.9061119046       -2.6083049672       -3.5115093341
 H          1.1406238993       -2.4218276456       -4.0852020922
 H          0.3127310422       -3.7374834289       -3.1557298058
 H          0.2923150995       -0.7262839668       -2.4312511277
