  62
        -98.94018584
 C         -1.8252963295       -0.6996087609       -0.8746806931
 C         -2.1231228389       -0.3451172933        0.4645151993
 C         -3.5526659698       -0.2981646777        0.8056989799
 C         -4.4772511694       -0.6280476730       -0.1131699719
 C         -5.9673007237       -0.6531348362        0.0945751401
 C         -6.6450713127        0.7136279953       -0.0733765339
 C         -6.3908129455        1.7090337575        1.0593110998
 H         -7.0929108595        2.5341288883        0.9236872010
 H         -6.6239052218        1.2374061771        2.0144856392
 C         -4.9645303294        2.2754519720        1.0964242502
 H         -4.4770574773        2.0973290875        0.1351431184
 H         -5.0064251842        3.3577627538        1.2374585004
 C         -4.0850096510        1.7071066563        2.2102005639
 H         -4.4946489120        1.9922021036        3.1817334412
 H         -3.0901195204        2.1505501355        2.1211302837
 C         -3.9286027558        0.1811372585        2.1753106156
 H         -4.8487499554       -0.2991297476        2.5076169615
 H         -3.1211209556       -0.0978454245        2.8567326308
 H         -7.7212204881        0.5372617995       -0.1389947314
 H         -6.3221471192        1.1496872591       -1.0216365292
 H         -6.3737291193       -1.3336411307       -0.6568800885
 H         -6.1928129229       -1.0534322209        1.0834722043
 O         -4.1471003571       -1.0145253642       -1.3748126644
 C         -2.8246192355       -1.0509470695       -1.7858247123
 O         -2.6675642409       -1.4213936311       -2.9668026009
 O         -1.2568595065       -0.0845457634        1.3376138898
 C         -0.3945442967       -0.7872612952       -1.3758183121
 C          0.4662456806       -1.5277706473       -0.3810357781
 C          0.0437218384       -2.7741406585        0.0765319858
 C          0.7986631130       -3.4873321058        0.9856802790
 C          2.0104115982       -2.9902682653        1.4349444468
 C          2.4497715918       -1.7582041895        0.9718930961
 C          1.6749485082       -1.0314931896        0.0782404250
 H          2.0260548224       -0.0660546582       -0.2428774120
 N          3.6761387942       -1.2169281149        1.3924753867
 S          4.7015136667       -0.5864042346        0.2272088868
 O          4.5615934259       -1.2825133329       -1.0312170640
 O          6.0162171771       -0.6264514378        0.8322036098
 C          4.2082298336        1.1140016970        0.0438925501
 C          4.0404149924        1.8827175569        1.1784532831
 C          3.6922550915        3.2163359381        1.0364771328
 C          3.5247746306        3.7572900373       -0.2294667397
 C          3.7001200739        2.9725678272       -1.3592195138
 C          4.0460623906        1.6373079541       -1.2237076699
 H          4.1840205266        0.9881180419       -2.0739190003
 H          3.5665134158        3.3936972699       -2.3430568467
 H          3.2530586025        4.7956790139       -0.3371706634
 H          3.5512881610        3.8296593102        1.9118027449
 H          4.1796349126        1.4285132544        2.1450989445
 H          4.1811939701       -1.7852332261        2.0571821017
 H          2.6067105920       -3.5505905497        2.1394002356
 H          0.4484203981       -4.4449948031        1.3412304574
 H         -0.8971256168       -3.1703821844       -0.2824251037
 H         -0.4511018225       -1.4082031646       -2.2861459504
 C          0.1977264706        0.5499474364       -1.7991430726
 C         -0.6783153754        1.7000040024       -2.1946110964
 C          0.1150877518        1.7651319491       -0.9261220464
 H          0.9684486551        2.4263680965       -0.8864686867
 H         -0.4037133696        1.6627677058        0.0133225449
 H         -0.3712038763        2.3118446694       -3.0293607095
 H         -1.7478125874        1.5618506441       -2.1261296547
 H          1.1099357146        0.4241651759       -2.3753940625
