  62
        -98.94182102
 C         -2.3803981126       -1.0695994813        0.1368942576
 C         -3.6363646864       -0.9309762850        0.7856432621
 C         -4.6119369299       -0.0497393152        0.1364015380
 C         -4.2809570278        0.5840069868       -1.0027084253
 C         -5.1709952241        1.4998478889       -1.7983650318
 C         -5.1935770554        2.9472360589       -1.2881840393
 C         -5.9517622654        3.1637774932        0.0221377454
 H         -6.0751076838        4.2415285871        0.1457454217
 H         -6.9485741382        2.7294672301       -0.0604068589
 C         -5.2440584769        2.6026006968        1.2634500173
 H         -5.2666076438        3.3467415018        2.0627869175
 H         -4.1928532758        2.4167088044        1.0301934396
 C         -5.8627058478        1.3205044468        1.8207041171
 H         -6.8727080589        1.5277204541        2.1810395942
 H         -5.2617038312        0.9920330784        2.6723480406
 C         -5.9311427064        0.1634342696        0.8155861016
 H         -6.1760444326       -0.7506969862        1.3619015265
 H         -6.7117400269        0.3508085121        0.0785401991
 H         -4.1633904293        3.2935919842       -1.1755901596
 H         -5.6658498329        3.5572964950       -2.0617425699
 H         -4.7823916648        1.5010565954       -2.8191397886
 H         -6.1861944567        1.1019930825       -1.8132532744
 O         -3.0633427096        0.4407135381       -1.5869583369
 C         -2.0768497229       -0.3691150363       -1.0322280509
 O         -1.0157266788       -0.3699453106       -1.6846300524
 O         -3.9290618294       -1.5212676189        1.8587291374
 C         -1.3530736378       -1.9638506980        0.8107522636
 C         -0.0503099630       -1.2233195087        0.9653682770
 C          0.0889233841       -0.2911269006        1.9893733451
 C          1.2558317642        0.4365907073        2.1263607169
 C          2.3036892750        0.2579385117        1.2397575159
 C          2.1653823201       -0.6534035453        0.2020888501
 C          1.0018270988       -1.4024182844        0.0823741518
 H          0.8994240215       -2.0994085863       -0.7347110545
 N          3.2160184300       -0.8390187529       -0.7104736959
 S          4.0559557865        0.4941250064       -1.2840475388
 O          3.2463066754        1.6899688411       -1.3030388932
 O          4.6091801046        0.0691297246       -2.5518209819
 C          5.3875219006        0.6774658908       -0.1130535801
 C          5.6188443223        1.9020007677        0.4821413862
 C          6.6676955653        2.0244395794        1.3804467119
 C          7.4636662751        0.9258278837        1.6655343624
 C          7.2204260189       -0.2966666109        1.0572402129
 C          6.1744056592       -0.4250045862        0.1576383962
 H          5.9546524594       -1.3555023272       -0.3383448349
 H          7.8416808108       -1.1488178259        1.2812724191
 H          8.2784748983        1.0231947311        2.3654617626
 H          6.8582575711        2.9745445134        1.8532664681
 H          4.9709869932        2.7278177569        0.2334894684
 H          2.9833864174       -1.4657818350       -1.4673563217
 H          3.2103597643        0.8332520927        1.3310657342
 H          1.3516275507        1.1534926561        2.9277380789
 H         -0.7355782023       -0.1370014470        2.6719522386
 H         -1.7678325617       -2.1378696918        1.8168330488
 C         -1.1844955708       -3.3350925354        0.1733397879
 C         -2.3746785573       -4.0794834795       -0.3516506028
 C         -1.3230498797       -3.5855868114       -1.2971928755
 H         -0.6647974005       -4.3111903242       -1.7533146022
 H         -1.5540815220       -2.7481322479       -1.9366574283
 H         -2.4450221353       -5.1404388391       -0.1654934563
 H         -3.3257347468       -3.5673002976       -0.3357869729
 H         -0.4370157753       -3.9262281957        0.6941676502
