  62
        -98.93436330
 C         -2.4353483092       -1.2414875513        0.0143754780
 C         -2.4536880797        0.0378034145       -0.5846850272
 C         -3.7781580022        0.6681620241       -0.7631963378
 C         -4.8751052620       -0.0039321199       -0.3664834862
 C         -6.3094302426        0.4514638940       -0.4062000623
 C         -6.6395094991        1.4576841035        0.7090184113
 C         -5.5845110268        2.5377194634        0.9352620031
 H         -5.8764416176        3.1066120918        1.8219729041
 H         -4.6261683749        2.0637234549        1.1561755143
 C         -5.4074251265        3.5259377221       -0.2149800063
 H         -6.3557412653        4.0362805691       -0.3978945742
 H         -4.6830882960        4.2768677879        0.1108298529
 C         -4.9143816557        2.9333526042       -1.5364028497
 H         -4.6175977183        3.7689217921       -2.1772329144
 H         -5.7161076428        2.4159330651       -2.0562732637
 C         -3.6926683965        2.0271323910       -1.4153213207
 H         -3.2916924496        1.8470856645       -2.4205642125
 H         -2.8980261332        2.5633997282       -0.8835740956
 H         -6.7489387499        0.9008433343        1.6427212639
 H         -7.5987163258        1.9247264763        0.4800745469
 H         -6.9253249037       -0.4391755090       -0.2642268723
 H         -6.5425695097        0.8631296912       -1.3835075723
 O         -4.8067902382       -1.2427340013        0.2007505750
 C         -3.6050110344       -1.8884959979        0.4093230753
 O         -3.7037083506       -3.0097912878        0.9480415222
 O         -1.4109873636        0.6431354114       -0.9520073930
 C         -1.1161001918       -1.9571824836        0.2366078368
 C         -0.1817539223       -1.0935453530        1.0487610066
 C         -0.6589429877       -0.4941754926        2.2118863077
 C          0.1610653896        0.3096021932        2.9788665071
 C          1.4745296801        0.5314848244        2.6039983016
 C          1.9678461801       -0.0784019626        1.4569961404
 C          1.1420521378       -0.8912923075        0.6918891933
 H          1.5459821374       -1.3455687088       -0.1964165159
 N          3.3168459012        0.0883013735        1.0936293116
 S          3.7562543134        0.2150081574       -0.5314109257
 O          3.0561655725        1.3109459319       -1.1636791584
 O          3.6318083633       -1.0765022660       -1.1572019726
 C          5.4830610697        0.6192438108       -0.3376495624
 C          5.8934874144        1.9345694182       -0.4429135533
 C          7.2344098503        2.2354715054       -0.2614620430
 C          8.1366847749        1.2217906732        0.0234907502
 C          7.7100484571       -0.0942048994        0.1249829085
 C          6.3711620959       -0.4017146207       -0.0563993855
 H          5.9946923338       -1.4093833238        0.0045012294
 H          8.4150595579       -0.8798797945        0.3438241368
 H          9.1795128089        1.4585681218        0.1640582477
 H          7.5694442828        3.2569444685       -0.3434266346
 H          5.1578501308        2.6881914826       -0.6745169608
 H          3.7657837250        0.8205109885        1.6283244004
 H          2.1124145584        1.1688208867        3.1976397965
 H         -0.2265546402        0.7751853757        3.8727696911
 H         -1.6888728316       -0.6605009647        2.4991906278
 H         -1.3530849385       -2.8550986403        0.8270709342
 C         -0.5305554182       -2.3910586331       -1.0910510526
 C          0.3350012482       -3.6111500498       -1.1726221330
 C         -1.0493240870       -3.6345469963       -1.7457691797
 H         -1.1658692608       -3.6418989597       -2.8191383957
 H         -1.8130895036       -4.1878388814       -1.2184439751
 H          1.1770136114       -3.5978326045       -1.8486377740
 H          0.5133549828       -4.1573963570       -0.2586192105
 H         -0.2880429757       -1.5509572954       -1.7336090508
