  62
        -98.94419667
 C         -1.8325218193       -1.3514215608        0.1406117502
 C         -2.0065268789       -0.3643181312       -0.8598221302
 C         -3.3527404889        0.2161654988       -0.9596924109
 C         -4.3293130891       -0.1900070109       -0.1295345510
 C         -5.7511538491        0.3014287592       -0.1204145017
 C         -5.9572915794        1.6018493295        0.6683966877
 C         -5.4086567091        2.8630640992       -0.0001311125
 H         -5.7869965988        2.9260289388       -1.0209793927
 H         -5.8102312893        3.7170380494        0.5490060270
 C         -3.8766495691        2.9602375692       -0.0099774921
 H         -3.4619604094        2.2652986194        0.7243183783
 H         -3.5733107892        3.9643938893        0.2954064077
 C         -3.2340791787        2.6866043487       -1.3697688817
 H         -3.5419702184        3.4559030584       -2.0815020121
 H         -2.1491229087        2.7515656187       -1.2543051814
 C         -3.5683550685        1.3110101984       -1.9612906213
 H         -4.5961518884        1.2979761383       -2.3228595217
 H         -2.8978428382        1.1286840081       -2.8045709011
 H         -5.5049073597        1.4871618698        1.6562571779
 H         -7.0329843094        1.7304987295        0.8088845773
 H         -6.0998901588        0.4366248388       -1.1446252019
 H         -6.3477128593       -0.4835406607        0.3493655784
 O         -4.1264155795       -1.1423164105        0.8179719394
 C         -2.8856401695       -1.7323588005        0.9803957100
 O         -2.8440422999       -2.5827990001        1.8919220804
 H          0.4354433909        0.3856990790       -0.1807022097
 C          0.8494661006       -0.0016530206        0.7385991606
 C          0.4521978604       -1.2525230304        1.1891094410
 C          1.0021263900       -1.7360608800        2.3702341413
 C          1.9266971198       -0.9872934098        3.0785222814
 C          2.3192039299        0.2600263001        2.6259154110
 C          1.7675221403        0.7536891196        1.4518163306
 N          2.1763834405        2.0204415294        0.9695473603
 S          3.7469971207        2.0455255092        0.3804274808
 O          4.6581015903        1.8794234996        1.4839772912
 O          3.8698473210        3.2726167989       -0.3730826796
 C          3.8279826211        0.6327611888       -0.7041649686
 C          3.3866055515        0.7741543483       -2.0043602288
 C          3.3632761617       -0.3387443020       -2.8286792984
 C          3.7689205816       -1.5691755718       -2.3356150978
 C          4.2023197811       -1.6961362813       -1.0249702776
 C          4.2310196309       -0.5859479510       -0.1969299980
 H          4.5615565605       -0.6415308406        0.8272430521
 H          4.5118710510       -2.6555631512       -0.6430080172
 H          3.7473826618       -2.4339827421       -2.9804243475
 H          3.0214218721       -0.2444358924       -3.8469939586
 H          3.0801755316        1.7487786882       -2.3499418893
 H          1.5608039708        2.3689027492        0.2469083100
 H          3.0497175598        0.8517568003        3.1534051310
 H          2.3453901695       -1.3781111994        3.9934011316
 H          0.6939255299       -2.7038751799        2.7377973016
 C         -0.5205114794       -2.0812052407        0.3855992109
 H         -0.7845377996       -2.9630305905        0.9841907412
 C          0.1433153211       -2.5538320112       -0.8950379887
 C          1.0352845510       -3.7556941512       -0.8491482479
 C         -0.3039160487       -3.8408770914       -1.5165725583
 H         -0.3448731584       -3.9050706719       -2.5933531783
 H         -1.0907394389       -4.3887089812       -1.0179299984
 H          1.9180723012       -3.7624242015       -1.4681521976
 H          1.1581556607       -4.2521600809        0.1013106323
 H          0.4167210013       -1.7460911315       -1.5610722489
 O         -1.1030658986        0.0351744785       -1.6431851100
