  62
        -98.93705305
 C         -1.7005734908       -1.0627267206        0.2372458301
 C         -2.9344264308       -0.9377797411        0.9246483601
 C         -3.7478534309        0.2629213390        0.6530839607
 C         -3.2566600209        1.1982756895       -0.1801095588
 C         -3.9042958210        2.4808086097       -0.6296628581
 C         -5.0017218309        2.2530393502       -1.6818550582
 C         -5.9468764409        1.0917062999       -1.3851168389
 H         -6.6025615408        0.9676946004       -2.2511250490
 H         -5.3663881708        0.1725523599       -1.2859977894
 C         -6.8304696309        1.2697148292       -0.1526860688
 H         -7.5108302709        0.4149233392       -0.1154221993
 H         -7.4368783410        2.1701485393       -0.2738548083
 C         -6.0992510110        1.3526686386        1.1889875113
 H         -5.6580567510        2.3348591185        1.3356967318
 H         -6.8493199310        1.2294527481        1.9757551312
 C         -5.0526011109        0.2656325685        1.4124600707
 H         -4.7752150809        0.2614964380        2.4735421307
 H         -5.5103510408       -0.7141512614        1.2331072402
 H         -5.5763354910        3.1749224102       -1.7863665078
 H         -4.5153593909        2.0489414407       -2.6390168583
 H         -3.1168896810        3.0909093600       -1.0775202078
 H         -4.2955367510        3.0217273992        0.2268434322
 O         -2.0441977109        1.0605854099       -0.7842949688
 C         -1.2420531208       -0.0574879801       -0.6153308794
 O         -0.1846399208       -0.0108607897       -1.2702824793
 O         -3.3543304208       -1.8039500215        1.7381451696
 C         -0.8715056407       -2.3032308407        0.5255989594
 C          0.5327430593       -1.8991256908        0.8893367197
 C          0.8160627792       -1.4647721615        2.1806579199
 C          2.0851361692       -1.0307872616        2.5169399002
 C          3.0900250292       -0.9944709610        1.5657849502
 C          2.8078526192       -1.4035965703        0.2690399100
 C          1.5446539493       -1.8787928803       -0.0564435203
 H          1.3366728093       -2.1893423097       -1.0682089104
 N          3.7992674893       -1.3180535298       -0.7213831099
 S          4.8268897792       -0.0019185097       -0.7101956992
 O          5.2105272192        0.1913488111       -2.0922175791
 O          5.9174669492       -0.2586395101        0.2007355407
 C          3.9031919491        1.4123695699       -0.1240185585
 C          2.6064928291        1.6237987201       -0.5475587284
 C          1.9317947790        2.7457431398       -0.0916283278
 C          2.5590408989        3.6384553394        0.7626473827
 C          3.8643433089        3.4148348092        1.1729754926
 C          4.5422123190        2.2915817595        0.7287526920
 H          5.5529549090        2.0719771094        1.0329347019
 H          4.3527913888        4.1082091089        1.8385933030
 H          2.0263871388        4.5092493392        1.1114563931
 H          0.9120100290        2.9014757999       -0.4074926778
 H          2.1062963591        0.9227491304       -1.1968411688
 H          3.4578131693       -1.5041832093       -1.6530543600
 H          4.0831946192       -0.6513631511        1.8079863404
 H          2.2939460591       -0.7072559621        3.5251749704
 H          0.0252793192       -1.4645311119        2.9178436999
 H         -1.3450756407       -2.7444075912        1.4169662692
 C         -0.9159902806       -3.3678863902       -0.5607602211
 C         -2.2061556006       -3.6896541899       -1.2523080813
 C         -1.0845781706       -3.0554912794       -2.0162420510
 H         -0.5469726805       -3.6613391990       -2.7315658313
 H         -1.1791888606       -2.0214463792       -2.3080409904
 H         -2.4460298605       -4.7239066898       -1.4474126619
 H         -3.0637871806       -3.0802327001       -1.0069277310
 H         -0.2741913406       -4.2102237002       -0.3197091016
