  62
        -98.93560455
 C         -2.3521329849       -1.1147488349       -0.5012469381
 C         -3.3434245719       -0.6167504734        0.3828359257
 C         -3.9045756803        0.7122862314        0.0903501705
 C         -3.4498299205        1.3964285107       -0.9756326384
 C         -3.8479740339        2.7424115348       -1.5440213927
 C         -4.6964286148        3.7131631993       -0.7272098444
 C         -3.9979123908        4.2933436918        0.5021795394
 H         -3.2046003724        4.9660044104        0.1663063832
 H         -4.7247810943        4.8879039079        1.0597875004
 C         -3.3638008547        3.2736728988        1.4453806489
 H         -2.8992059897        3.8234935221        2.2687438509
 H         -2.5614373019        2.7413971233        0.9287010798
 C         -4.3273998845        2.2557819349        2.0527505675
 H         -3.7763394364        1.6985710039        2.8153613113
 H         -5.1485763584        2.7779983724        2.5475011470
 C         -4.9185093267        1.2320076573        1.0682585727
 H         -5.2584199065        0.3671938337        1.6453312034
 H         -5.7820573665        1.6376233433        0.5466951514
 H         -5.6367438553        3.2476823779       -0.4472377547
 H         -4.9403859438        4.5470415792       -1.3909491851
 H         -2.9107685716        3.2341930668       -1.8241412342
 H         -4.3740204616        2.5252647368       -2.4803097293
 O         -2.4941407233        0.8789035176       -1.7990883503
 C         -1.9121497561       -0.3596073893       -1.5863582947
 O         -1.0414535729       -0.6437721292       -2.4349087566
 H          0.5287165055       -1.3675016800       -1.0510371326
 C          0.6192960026       -1.7264581508       -0.0360713534
 C         -0.4701021732       -2.3370026690        0.5693476207
 C         -0.3405825342       -2.7701209807        1.8834683355
 C          0.8481385378       -2.5940057572        2.5709095516
 C          1.9289446007       -1.9777040758        1.9658367523
 C          1.8049034407       -1.5347382096        0.6560507170
 N          2.8970431237       -0.8774325157        0.0339710771
 S          3.1927231681        0.6828877131        0.6202866863
 O          3.3101455172        0.6196572767        2.0544406280
 O          2.2067060408        1.6087882457        0.0998579120
 C          4.7859024110        1.0124974911       -0.1058191839
 C          5.9111805486        0.5049128216        0.5143747412
 C          7.1509524330        0.7248586510       -0.0637796175
 C          7.2439764443        1.4431509093       -1.2466718973
 C          6.1053405789        1.9464375760       -1.8572244263
 C          4.8619816479        1.7285754824       -1.2843786231
 H          3.9510575056        2.1076957491       -1.7200545720
 H          6.1798887738        2.5062028193       -2.7757184675
 H          8.2098552718        1.6137855987       -1.6952404863
 H          8.0389117998        0.3367442269        0.4084647809
 H          5.7905025875       -0.0396630439        1.4359371794
 H          2.7311506406       -0.7882738214       -0.9618182920
 H          2.8507687658       -1.8119322753        2.4978843936
 H          0.9321072905       -2.9353921185        3.5915458621
 H         -1.1876374525       -3.2288998289        2.3726723627
 C         -1.7756106775       -2.4834719448       -0.1759146192
 H         -2.5004153452       -2.9442965239        0.5085969335
 C         -1.6198622287       -3.3817505177       -1.3867381901
 C         -1.5444443769       -4.8644273092       -1.1846410291
 C         -2.7641556679       -4.2533438149       -1.8049062274
 H         -2.9387996119       -4.4003913744       -2.8600801175
 H         -3.6683328396       -4.2072918997       -1.2155440961
 H         -0.8789089006       -5.4356144894       -1.8131955067
 H         -1.6221123987       -5.2351432354       -0.1738598622
 H         -1.0150161736       -2.9474555313       -2.1718079719
 O         -3.7573723509       -1.2693092932        1.3783343638
