  62
        -98.93989830
 C          1.1602421370        1.4638462830        0.2880235463
 C          1.3844694619        0.3792767119       -0.5921861619
 C          2.3957834749       -0.6081769917       -0.1696240332
 C          2.9823430122       -0.4878482389        1.0327017126
 C          4.0043610169       -1.3870552367        1.6830101458
 C          5.1337893439       -1.9317923219        0.7992863052
 C          5.6156055352       -0.9703773005       -0.2969981655
 H          5.1966192872        0.0240028845       -0.1333896923
 H          6.7017565589       -0.8790762846       -0.2371368041
 C          5.2616504370       -1.4462713128       -1.7079639507
 H          5.9200494183       -0.9458672527       -2.4222564627
 H          5.4608242621       -2.5179351307       -1.7768624742
 C          3.8239463663       -1.1744335456       -2.1492869781
 H          3.6799860121       -0.1008446748       -2.2985112314
 H          3.6743286029       -1.6546381281       -3.1193117255
 C          2.7329962839       -1.6644130977       -1.1824994105
 H          3.0207040302       -2.6006403388       -0.7121893589
 H          1.8193023990       -1.8291921842       -1.7591926736
 H          5.9653055569       -2.1715916624        1.4643360527
 H          4.8216668431       -2.8681590981        0.3393557584
 H          4.4318852059       -0.7898504157        2.4921933246
 H          3.4804170342       -2.2260072512        2.1505537021
 O          2.6718868541        0.5269539323        1.8882447944
 C          1.7929654814        1.5305709924        1.5330298297
 O          1.6549069311        2.4179052034        2.3985420034
 O          0.7879967151        0.2173827157       -1.6898929507
 C          0.2291583124        2.6251385841       -0.0305352787
 C         -1.2084052669        2.2352507756        0.2101336234
 C         -1.9239821594        2.7738839061        1.2730665452
 C         -3.2318980401        2.3880166309        1.5131085474
 C         -3.8499691284        1.4518831592        0.7027761103
 C         -3.1369824668        0.9007651690       -0.3535815442
 C         -1.8324343970        1.2989384720       -0.6023801287
 H         -1.2783270167        0.8501620874       -1.4133675662
 N         -3.7424233774       -0.0993365268       -1.1519390095
 S         -3.9342076454       -1.5751204064       -0.3835566053
 O         -4.3919740128       -2.4957526432       -1.3985024272
 O         -4.8027766710       -1.3911636638        0.7509777415
 C         -2.3031674085       -2.0431981839        0.1700523606
 C         -1.5871228097       -2.9666948311       -0.5640898967
 C         -0.3111323472       -3.3095026754       -0.1491151077
 C          0.2313533198       -2.7100380510        0.9763645533
 C         -0.4925080554       -1.7702423108        1.6926027348
 C         -1.7754421977       -1.4347618504        1.2918406256
 H         -2.3691051905       -0.7191063838        1.8375003460
 H         -0.0601957546       -1.2909292827        2.5576582646
 H          1.2256082789       -2.9743184532        1.2986948868
 H          0.2582128931       -4.0371920492       -0.7046249133
 H         -2.0468836946       -3.4060123735       -1.4349205570
 H         -3.2434356083       -0.2535846406       -2.0182706972
 H         -4.8578029464        1.1189910403        0.8897337085
 H         -3.7743748605        2.8172418651        2.3418658693
 H         -1.4406116397        3.4877376298        1.9244714797
 H          0.4856933925        3.4129875744        0.6900690787
 C          0.4315128445        3.1730224279       -1.4300124838
 C         -0.0433476889        4.5591007394       -1.7412490973
 C          1.4248812194        4.2721353216       -1.6497282538
 H          2.0086857453        4.2654725864       -2.5580479731
 H          1.9638737537        4.6399275964       -0.7884360401
 H         -0.4705836927        4.7516091172       -2.7133794315
 H         -0.4999431711        5.1225858458       -0.9415382604
 H          0.3436703165        2.4243887950       -2.2059303034
