  62
        -98.94161048
 C         -2.7121632999       -0.3655758620       -0.3979701013
 C         -1.8277010702        0.4516498184       -1.1441333813
 C         -1.9068541110        1.8957666284       -0.8792856914
 C         -2.8173853312        2.3645234280       -0.0085869514
 C         -2.9752791820        3.8044430079        0.3827445485
 C         -2.1418882122        4.1406292984        1.6269420885
 C         -0.6880208120        3.6728347092        1.5491493286
 H         -0.1903301422        4.0077623395        2.4622660186
 H         -0.6534574214        2.5800391092        1.5563114786
 C          0.0858316478        4.1893842795        0.3285355686
 H          1.0734588976        4.5177173800        0.6589675086
 H         -0.4227515426        5.0565637692       -0.0954701615
 C          0.3096430584        3.1406608795       -0.7626760114
 H          0.7027114888        2.2294643198       -0.3022519213
 H          1.0698577782        3.5233676199       -1.4495570614
 C         -0.9265217414        2.7792846889       -1.5976355214
 H         -1.4120288219        3.6912150986       -1.9511552414
 H         -0.5906116611        2.2089578790       -2.4685247813
 H         -2.6060351120        3.6653312582        2.4942858985
 H         -2.1683976927        5.2216308784        1.7770473585
 H         -4.0286360921        3.9857835274        0.6036537585
 H         -2.6744485223        4.4366369381       -0.4503039515
 O         -3.6875831509        1.5571931576        0.6500108186
 C         -3.6287433902        0.1831596276        0.5050263387
 O         -4.4473367499       -0.4386929128        1.2120061987
 O         -1.0071857200        0.0253382188       -2.0009353612
 C         -2.6776465091       -1.8888423919       -0.4492353912
 C         -1.4822534489       -2.3278696313        0.3618428589
 C         -1.6324508987       -2.8088007913        1.6579574389
 C         -0.5254805786       -3.0672691407        2.4483496189
 C          0.7525652213       -2.8274754101        1.9736040590
 C          0.9082540711       -2.3541278501        0.6787924789
 C         -0.1976344290       -2.1382809907       -0.1261818811
 H         -0.0613625591       -1.7415723507       -1.1206313811
 N          2.2036016110       -2.0154080094        0.2070229790
 S          2.7472637402       -0.6073635191        0.9872279489
 O          3.3291810404       -0.9995880588        2.2472400990
 O          1.6791299897        0.3647067203        1.0643060488
 C          4.0182182200       -0.0422811985       -0.1274339111
 C          5.3396139201       -0.3556597479        0.1244232390
 C          6.3094262299        0.0671925926       -0.7710764910
 C          5.9428500696        0.7890070423       -1.8969419111
 C          4.6112024395        1.0939308316       -2.1371646211
 C          3.6362789196        0.6736710212       -1.2464793211
 H          2.5904014895        0.8966182807       -1.3940903812
 H          4.3271626792        1.6547681815       -3.0131395212
 H          6.6986087895        1.1181161727       -2.5924783411
 H          7.3456283200       -0.1671127169       -0.5883027510
 H          5.5746383104       -0.9145777677        1.0150737490
 H          2.1654606209       -1.8191206695       -0.7869469410
 H          1.6225156614       -2.9677751696        2.5950362390
 H         -0.6604746784       -3.4349685107        3.4546108290
 H         -2.6282058386       -2.9447317418        2.0560359389
 H         -3.5844778089       -2.2278419024        0.0681563188
 C         -2.6850833788       -2.4499777020       -1.8557367812
 C         -3.0488654980       -3.8893833822       -2.0575675111
 C         -3.9931647886       -2.8096018127       -2.4909416112
 H         -4.1195066386       -2.6255657828       -3.5472120112
 H         -4.8906545087       -2.6521817331       -1.9104381712
 H         -2.5263844077       -4.4510478820       -2.8165178310
 H         -3.3064198378       -4.4659519923       -1.1819442111
 H         -1.9262574290       -2.0254902617       -2.4988077912
