  62
        -98.93411678
 C          2.0984497677        0.9735597239        0.3244455287
 C          1.9731300041       -0.0464408674       -0.6499629089
 C          2.1421695373       -1.4308365403       -0.1706168433
 C          2.3912816302       -1.6641314033        1.1276083032
 C          2.5480584094       -2.9893387060        1.8307970581
 C          3.3898937654       -4.0676151720        1.1324290328
 C          4.5397630678       -3.5375504599        0.2631040973
 H          4.6960876004       -2.4751730961        0.4570234562
 H          5.4589176884       -4.0587303318        0.5368445100
 C          4.3063644686       -3.7541186721       -1.2342913395
 H          5.2689671253       -3.7125610017       -1.7494131263
 H          3.8983357067       -4.7561676114       -1.3829325230
 C          3.3877523746       -2.7365588280       -1.9106609125
 H          3.8918554747       -1.7689737725       -1.9806924689
 H          3.2015777813       -3.0753087538       -2.9326483566
 C          2.0365848839       -2.5041508377       -1.2153158495
 H          1.6404499156       -3.4276773282       -0.7989430572
 H          1.3254299783       -2.1315769476       -1.9586676120
 H          3.7937299896       -4.7089790417        1.9175857860
 H          2.7419639532       -4.6923397463        0.5189768244
 H          2.9939174822       -2.7447434784        2.7980205407
 H          1.5468669124       -3.3842315833        2.0279910188
 O          2.5119407450       -0.6530475739        2.0337909666
 C          2.3482909417        0.6680412159        1.6638218715
 O          2.4661620258        1.4788624384        2.6067849033
 O          1.7250995864        0.1577954792       -1.8681674926
 C          1.8740390834        2.4502163904        0.0423460997
 C          0.4118142528        2.7942611691        0.2149007836
 C          0.0244076271        3.9566038690        0.8721647701
 C         -1.3149940335        4.2458403745        1.0614848712
 C         -2.2922834261        3.3688038745        0.6265793608
 C         -1.9144638344        2.2071761499       -0.0367021004
 C         -0.5722661491        1.9424056946       -0.2625085268
 H         -0.3060832174        1.0404786718       -0.7915329975
 N         -2.8676962382        1.2801599876       -0.4873592846
 S         -2.4809420910       -0.3606713458       -0.3265014383
 O         -1.7188797336       -0.5738538190        0.8836668098
 O         -1.8913081623       -0.8241484658       -1.5563082012
 C         -4.1149222325       -1.0583537919       -0.1539711616
 C         -4.8354786046       -1.3711799746       -1.2912170043
 C         -6.1192881540       -1.8750292725       -1.1534451431
 C         -6.6587192717       -2.0556927697        0.1115342663
 C         -5.9229049494       -1.7393165923        1.2438733766
 C         -4.6390123800       -1.2336304471        1.1130175242
 H         -4.0256912139       -0.9816216339        1.9635731697
 H         -6.3427971604       -1.8841259088        2.2262145464
 H         -7.6577327840       -2.4482227272        0.2162595279
 H         -6.6927659068       -2.1248949294       -2.0313961546
 H         -4.3697526524       -1.2218691851       -2.2514124398
 H         -3.8019294781        1.4792652665       -0.1556425362
 H         -3.3369068457        3.5774719845        0.8008132078
 H         -1.6010225207        5.1512776486        1.5747234667
 H          0.7819878505        4.6241589498        1.2547436549
 H          2.4335302274        2.9934637464        0.8177041415
 C          2.3674330461        2.9129931134       -1.3143846550
 C          2.7786805363        4.3419460516       -1.4967929705
 C          3.8140257186        3.2584013228       -1.4926767519
 H          4.2937829588        2.9919909496       -2.4222056136
 H          4.4569281730        3.1702066264       -0.6286424953
 H          2.5453904798        4.8265646534       -2.4322104637
 H          2.7286428007        4.9939567370       -0.6381709275
 H          1.8683962188        2.4208036905       -2.1387302217
