  62
        -98.94056238
 C          2.5762605720       -0.2875865095        0.4637201126
 C          2.1849555637       -0.9104491966       -0.7457441891
 C          1.4934651458       -2.2001736363       -0.6133586647
 C          1.2499164296       -2.6909940685        0.6150534928
 C          0.4140205367       -3.9022742602        0.9159068597
 C         -1.0789067211       -3.5318583717        0.7922959717
 C         -1.8160519466       -4.2560485160       -0.3344073678
 H         -1.9995320188       -5.2897730363       -0.0323453115
 H         -2.7847924066       -3.7661189008       -0.4521500414
 C         -1.1013389707       -4.2804361801       -1.6890989721
 H         -0.3398557742       -5.0622969419       -1.6873073373
 H         -1.8443204247       -4.5701434985       -2.4352635766
 C         -0.4498560822       -2.9631686983       -2.1299280831
 H         -0.9260621693       -2.1088724341       -1.6477297693
 H         -0.6026891769       -2.8508512859       -3.2056439187
 C          1.0687234551       -2.8871452344       -1.8810980426
 H          1.5006793318       -3.8915054316       -1.9168511476
 H          1.5235277705       -2.2991598236       -2.6837071449
 H         -1.5874893539       -3.7495320424        1.7334860315
 H         -1.1540715862       -2.4516766907        0.6406597471
 H          0.6685276587       -4.7085990879        0.2314991829
 H          0.6457155538       -4.2176074269        1.9336181807
 O          1.6676360862       -2.0781468449        1.7546328911
 C          2.3159139012       -0.8554567744        1.7087400611
 O          2.6128625689       -0.3859240742        2.8283945237
 H          0.5723830751        1.1877228247        0.9848893140
 C          0.8232589561        1.9005301757        0.2113771866
 C          2.1445913434        2.0322613489       -0.1974927027
 C          2.4450966807        2.9739679874       -1.1722337932
 C          1.4364616364        3.7300727605       -1.7459370946
 C          0.1156570081        3.5516693486       -1.3784356426
 C         -0.1918047844        2.6262887646       -0.3865489215
 N         -1.5179406557        2.4151315810        0.0321403031
 S         -1.9464913092        0.8440700103        0.4884071466
 O         -1.6165504420        0.6591123657        1.8804630914
 O         -1.3987050194       -0.1193109536       -0.4374323299
 C         -3.7181269262        0.9296746002        0.3038959304
 C         -4.4628766350        1.5175532096        1.3089113395
 C         -5.8364455113        1.6166521854        1.1541297138
 C         -6.4390133799        1.1290679414        0.0037022619
 C         -5.6790073760        0.5393165968       -0.9951414652
 C         -4.3043459595        0.4387472388       -0.8473550369
 H         -3.6732825261       -0.0175348281       -1.5934098953
 H         -6.1499669732        0.1578480369       -1.8867283615
 H         -7.5082602847        1.2066481553       -0.1137481849
 H         -6.4306342539        2.0718198351        1.9299739814
 H         -3.9503163921        1.8715610464        2.1881946700
 H         -2.1968654709        2.8157776733       -0.6010595975
 H         -0.6708871151        4.1194962958       -1.8516787056
 H          1.6816841437        4.4535621087       -2.5086694387
 H          3.4651253771        3.1039028387       -1.4949312200
 C          3.1643904029        1.1129560341        0.4340621042
 H          3.2954910203        1.4113946516        1.4851226491
 C          4.5118004792        1.1315544419       -0.2547166069
 C          5.5342398257        2.1616303037        0.1184717562
 C          5.7272392623        0.7324805647        0.5249478239
 H          6.4895397673        0.1508861208        0.0289275431
 H          5.5834740552        0.4691933825        1.5630659129
 H          6.1700245102        2.5617532127       -0.6567755477
 H          5.2692715743        2.8735058160        0.8856401296
 H          4.4528649103        0.8140532234       -1.2891214840
 O          2.3979260715       -0.4101398303       -1.8820737453
