  62
        -98.93731765
 C         -1.7387531029       -1.0274334319       -0.1286406313
 C         -2.9061393818       -1.0853788205        0.6787043626
 C         -4.1228955234       -0.4793373294        0.1250269242
 C         -4.0876272644        0.0743152122       -1.0998547952
 C         -5.2412547884        0.6847250922       -1.8507338870
 C         -5.8589966319        1.9559036008       -1.2373210775
 C         -7.0639064796        1.6961665885       -0.3246275362
 H         -7.8154258852        2.4668579104       -0.5078547609
 H         -7.5174860375        0.7443700787       -0.6039346444
 C         -6.7751045542        1.7031952148        1.1795076993
 H         -6.6781746179        2.7370175343        1.5191023941
 H         -7.6396131879        1.2705185374        1.6877066551
 C         -5.5161204437        0.9567454274        1.6215790054
 H         -4.6319487445        1.5511527422        1.3782274940
 H         -5.5367357002        0.8686569043        2.7096373222
 C         -5.3439244089       -0.4414086565        0.9968610342
 H         -6.2298712009       -0.7210915281        0.4286907890
 H         -5.1893542953       -1.1836302352        1.7824951743
 H         -5.0894969140        2.5140767154       -0.7043217106
 H         -6.1908938867        2.5785702070       -2.0697650692
 H         -4.8490695720        0.9222812265       -2.8418417770
 H         -6.0190640713       -0.0725800713       -1.9728799941
 O         -2.9524935831        0.1040019619       -1.8466643686
 C         -1.7553980783       -0.4231175401       -1.3854501774
 O         -0.8151112558       -0.2824096954       -2.1949365504
 O         -2.9312663026       -1.6366888645        1.8110002589
 C         -0.4865576521       -1.6655964269        0.4487041494
 C          0.4582402806       -0.6441388272        1.0348527669
 C          0.8355104581       -0.7000299102        2.3711956168
 C          1.7385277202        0.2126713227        2.8894617078
 C          2.2825681572        1.1992343146        2.0867830992
 C          1.9036573689        1.2675207957        0.7526315483
 C          1.0056475256        0.3476785888        0.2334715939
 H          0.7202193140        0.4053495123       -0.8063811654
 N          2.4672635012        2.2588615506       -0.0816397523
 S          4.1309123186        2.1391371236       -0.2665910774
 O          4.7736706684        2.6622542646        0.9126820271
 O          4.4403261339        2.8102333334       -1.5089988413
 C          4.4319318139        0.3862343292       -0.3982982552
 C          4.9301262398       -0.3069378883        0.6858809666
 C          5.0819903445       -1.6806096984        0.5884743514
 C          4.7294514221       -2.3331858968       -0.5823444133
 C          4.2276276170       -1.6226268414       -1.6619452440
 C          4.0725002695       -0.2493834810       -1.5699950551
 H          3.6878101577        0.3356281520       -2.3905212317
 H          3.9505943086       -2.1316180866       -2.5714661569
 H          4.8487995811       -3.4028738924       -0.6554018527
 H          5.4695567177       -2.2375761864        1.4260188952
 H          5.1918352555        0.2403074753        1.5763939785
 H          2.0292705106        2.2872402173       -0.9922650774
 H          2.9958609147        1.9126942871        2.4668987580
 H          2.0223562999        0.1551658155        3.9290864849
 H          0.4089443308       -1.4611704382        3.0077850404
 H         -0.8456988874       -2.2987508115        1.2708626274
 C          0.2554060119       -2.5412147497       -0.5438807275
 C          1.1730179486       -3.6066973046       -0.0278721967
 C         -0.1234698231       -3.9840780717       -0.6781949903
 H         -0.1012871624       -4.4322321120       -1.6601587970
 H         -0.9228891113       -4.3508686480       -0.0508569325
 H          2.0907840899       -3.7941199820       -0.5622902393
 H          1.2549145060       -3.7203306683        1.0421248948
 H          0.5467763914       -2.0166655974       -1.4443349799
