  62
        -98.94910711
 C          1.2640161373        1.5472332739        0.5433661776
 C          2.2158274260        1.2178677514       -0.4519971548
 C          3.2009209983        0.1969219698       -0.0763941983
 C          3.1607521429       -0.3567779480        1.1487872036
 C          4.0789655210       -1.4298917619        1.6660527854
 C          3.6440975579       -2.8465155831        1.2646459538
 C          3.8881516442       -3.2113545360       -0.2004005115
 H          4.9201686907       -2.9796047771       -0.4674240497
 H          3.7629649120       -4.2928784289       -0.2838947707
 C          2.9309689712       -2.5316111457       -1.1899481170
 H          2.0470185889       -2.1722822581       -0.6560100747
 H          2.5743748209       -3.2694080812       -1.9133605821
 C          3.5498172406       -1.3822131697       -1.9869164887
 H          4.3256536192       -1.7749569151       -2.6487156802
 H          2.7669446869       -0.9396550892       -2.6084803304
 C          4.1608597489       -0.2663288748       -1.1297093995
 H          5.0918703999       -0.6058232170       -0.6765130093
 H          4.3756414676        0.5844801962       -1.7812583279
 H          2.5806399556       -2.9640829986        1.4896972462
 H          4.1987154984       -3.5497369201        1.8907513410
 H          5.0968728001       -1.2463979727        1.3211272714
 H          4.0610844500       -1.3592323919        2.7558180276
 O          2.2515347852        0.0120071338        2.0892823137
 C          1.2544645563        0.9271434190        1.7918278448
 O          0.4298946339        1.1064635877        2.7131748761
 H         -0.3785473162       -0.1024120601       -0.1653926004
 C         -0.8889731310        0.4988775877       -0.9003327321
 C         -0.7267325593        1.8764313251       -0.8879611690
 C         -1.3722364445        2.6239333054       -1.8651730292
 C         -2.1417392700        1.9946191841       -2.8292255288
 C         -2.3011587589        0.6200732147       -2.8338108709
 C         -1.6630161204       -0.1353767744       -1.8569109256
 N         -1.7763052215       -1.5326363227       -1.8121506310
 S         -1.7911644463       -2.3163730179       -0.3350102955
 O         -0.4768516244       -2.3207240006        0.2562948181
 O         -2.3503616049       -3.6179697751       -0.6332242418
 C         -2.9474869706       -1.3834299061        0.6528304695
 C         -4.2823687774       -1.4749168069        0.3047741722
 C         -5.2149712758       -0.7295001310        1.0055681591
 C         -4.7991334663        0.0991760756        2.0373220210
 C         -3.4584717238        0.1758939838        2.3783705923
 C         -2.5198803843       -0.5712497953        1.6824600529
 H         -1.4721254185       -0.5190308796        1.9355663833
 H         -3.1236147243        0.8160299931        3.1792121884
 H         -5.5225085755        0.6860061625        2.5810256514
 H         -6.2591608376       -0.7931631078        0.7454409219
 H         -4.5659790770       -2.1398366096       -0.4948218451
 H         -2.4313389586       -1.9358222228       -2.4650098197
 H         -2.9004612102        0.1351107377       -3.5887505764
 H         -2.6300266983        2.5855999815       -3.5890823973
 H         -1.2648202888        3.6963016780       -1.8775869480
 C          0.1173068809        2.4830740423        0.2103128528
 H         -0.5049611633        2.5372182564        1.1168037958
 C          0.6210114542        3.8729291321       -0.1183793319
 C         -0.2042219524        5.0767858614        0.2213616286
 C          1.0362254327        4.7735058338        1.0049493587
 H          1.9034125927        5.4019146514        0.8689104546
 H          0.9279290531        4.3922077780        2.0102541713
 H         -1.1566445971        4.9127122637        0.7025043245
 H         -0.1874596914        5.9199288628       -0.4527179699
 H          1.2155705089        3.8952162421       -1.0239435819
 O          2.2365657734        1.7364152399       -1.5985586063
