  62
        -98.94691300
 C         -0.4903657832       -1.7980640851       -0.6522895946
 C         -1.6188454837       -2.0780104491        0.1600051224
 C         -2.8013308112       -1.2326757599       -0.0406952471
 C         -2.7616288333       -0.2619673550       -0.9704696930
 C         -3.8945870510        0.6717197183       -1.2867172718
 C         -3.8174889770        1.9694554732       -0.4715182481
 C         -3.5603844649        1.7524034602        1.0198848428
 H         -2.5610445154        1.3311687573        1.1632589788
 H         -3.5533086313        2.7370128114        1.4947239040
 C         -4.5991713740        0.8612964747        1.7158098322
 H         -4.8651553933        1.3207313049        2.6702672517
 H         -5.5078927048        0.8135780502        1.1138195147
 C         -4.1213035499       -0.5586971589        2.0258547196
 H         -3.1495654538       -0.5133659512        2.5255431527
 H         -4.8301109816       -1.0098104408        2.7258329852
 C         -4.0013091423       -1.5014556350        0.8215417763
 H         -4.9208866469       -1.4676017235        0.2333141607
 H         -3.8741579735       -2.5183560414        1.2044674553
 H         -3.0104272726        2.5879549879       -0.8708658766
 H         -4.7544003104        2.5149153052       -0.6026289323
 H         -4.8356663458        0.1634068586       -1.0844294979
 H         -3.8477596895        0.9175306188       -2.3491617737
 O         -1.6637780471       -0.0128206034       -1.7240707935
 C         -0.4902543180       -0.7407501200       -1.5628572332
 O          0.4392029371       -0.3407343313       -2.2897206359
 O         -1.6384161574       -3.0124999565        1.0077532519
 C          0.7394410576       -2.6549831445       -0.4106980987
 C          1.6206514180       -2.0398559769        0.6523912113
 C          2.2371810723       -2.8259905992        1.6193048391
 C          3.0140005737       -2.2461452355        2.6062336139
 C          3.1624270346       -0.8718131273        2.6696944908
 C          2.5495662409       -0.0788178170        1.7073542884
 C          1.8160552733       -0.6682984912        0.6894222586
 H          1.3642611589       -0.0409853261       -0.0619160685
 N          2.6446641025        1.3205338628        1.7364926852
 S          1.2842177579        2.2160526877        1.3334378518
 O          1.4774940771        3.4840990156        2.0098463070
 O          0.0650803343        1.5133842922        1.6622784311
 C          1.4033413714        2.4937374503       -0.4183040847
 C          2.6434298726        2.6046696533       -1.0133720755
 C          2.7079125267        2.8659940175       -2.3722026131
 C          1.5415259002        3.0169912852       -3.1057091093
 C          0.3048340884        2.9088962153       -2.4912197332
 C          0.2341151949        2.6468469763       -1.1335340136
 H         -0.7059691233        2.5330994245       -0.6163298770
 H         -0.6033116843        3.0114557519       -3.0635801001
 H          1.5949826187        3.2115855030       -4.1653368851
 H          3.6678920427        2.9438642482       -2.8571077961
 H          3.5297147509        2.4709637126       -0.4154294870
 H          3.1206719057        1.7033230108        2.5407150896
 H          3.7379288081       -0.4148494222        3.4602856740
 H          3.4882530803       -2.8673946984        3.3506804316
 H          2.0890309008       -3.8953291507        1.6066043718
 H          0.3593260802       -3.6061136930       -0.0113501272
 C          1.5500795416       -2.9483974778       -1.6578716047
 C          2.3542180375       -4.2101205095       -1.7345141165
 C          1.1202267241       -4.0557496318       -2.5708537228
 H          1.2262370572       -3.9128945938       -3.6353981563
 H          0.2413204592       -4.6189176724       -2.2920760860
 H          3.3149569939       -4.1766593731       -2.2243927424
 H          2.3119128003       -4.8873803333       -0.8953070075
 H          1.9609050207       -2.0585704202       -2.1164644304
