  62
        -98.94131598
 C         -1.2256760597       -0.8918767506        0.6631870096
 C         -2.1368728100       -0.8005775898       -0.4132513201
 C         -2.9121316700        0.4493367703       -0.5162259091
 C         -2.6852133897        1.4451544397        0.3597452216
 C         -3.2730305897        2.8376836296        0.4585163227
 C         -4.5538180299        3.2013840002       -0.2886326967
 C         -5.8081325798        2.4750974699        0.1955423531
 H         -6.0501473795        2.8306672291        1.2001666934
 H         -6.6348052399        2.7498060003       -0.4632312065
 C         -5.7060325598        0.9531256198        0.2559561420
 H         -4.9588488696        0.6649291193        0.9980962316
 H         -6.6689994797        0.5673884096        0.6012639119
 C         -5.3785223201        0.2670156007       -1.0690176486
 H         -6.0888686103        0.5862293213       -1.8339870882
 H         -5.5059021901       -0.8086673994       -0.9218599693
 C         -3.9511523402        0.4935532011       -1.5993232988
 H         -3.7102789204       -0.3235021584       -2.2859536794
 H         -3.8773394703        1.4215553415       -2.1620497081
 H         -4.4194313201        3.0577883409       -1.3567726468
 H         -4.7103061298        4.2721861201       -0.1312759759
 H         -2.4761853898        3.5157682698        0.1313819730
 H         -3.4177984094        3.0241958989        1.5275724329
 O         -1.7531200595        1.3316021390        1.3503918013
 C         -1.0046725195        0.1817509088        1.5226966603
 O         -0.1897362393        0.2387030681        2.4668431301
 O         -2.3032488002       -1.7172512892       -1.2606350107
 C         -0.3652862897       -2.1329350507        0.8421182285
 C          0.5535856100       -2.2334781299       -0.3519347918
 C          0.5943306898       -3.3123453993       -1.2228847826
 C          1.4140640495       -3.2710495585       -2.3387665827
 C          2.1943791695       -2.1628402783       -2.6096099221
 C          2.1737774097       -1.0830247289       -1.7307262314
 C          1.3756386200       -1.1408215497       -0.6018989112
 H          1.3464857202       -0.3023233902        0.0758705694
 N          2.9707899497        0.0421152912       -1.9647853008
 S          2.7241260599        1.5231361207       -1.2377841196
 O          1.3237650499        1.8341931906       -1.0657465591
 O          3.4774535697        2.4408060613       -2.0677167692
 C          3.5609641602        1.3509561496        0.3240778300
 C          4.9257647302        1.1355445296        0.2814205395
 C          5.6205757105        0.9843211587        1.4692992193
 C          4.9419861708        1.0488756879        2.6776854695
 C          3.5742420708        1.2690048479        2.7042254700
 C          2.8732759105        1.4241471887        1.5174809402
 H          1.8053521105        1.5835861688        1.5168085906
 H          3.0365401610        1.3139144272        3.6379154201
 H          5.4804978710        0.9274048072        3.6043609493
 H          6.6850066105        0.8144567187        1.4516086289
 H          5.4138526300        1.1004172602       -0.6782965406
 H          3.3978659395        0.1042338918       -2.8756482308
 H          2.8117948093       -2.1254951377       -3.4939066722
 H          1.4319356293       -4.1101442180       -3.0177589533
 H         -0.0272440202       -4.1736881394       -1.0430463930
 H          0.2517278205       -1.9477389814        1.7331787985
 C         -1.2142046597       -3.3624905509        1.0779537278
 C         -0.6278344895       -4.5488051214        1.7807551569
 C         -1.6424266993       -3.6921984618        2.4751743177
 H         -2.6350893093       -4.0876714019        2.6297521977
 H         -1.3064491391       -3.0370834524        3.2659848881
 H         -0.9246175496       -5.5363483511        1.4618445262
 H          0.3997947906       -4.4791368716        2.1036951767
 H         -1.9289764599       -3.5376818303        0.2829488379
