  62
        -98.94871834
 C         -0.9546764948       -1.2728885907        0.0374502172
 C         -1.9351741382       -1.0314320225        1.0267913469
 C         -2.6502710194        0.2445803385        0.9198104480
 C         -2.3223343900        1.1121640345       -0.0548428674
 C         -2.9367493077        2.4690825995       -0.2708301719
 C         -4.2450495748        2.4439133626       -1.0731706337
 C         -5.4581518043        1.8946134116       -0.3217076330
 H         -5.5591182954        2.4141554123        0.6317690753
 H         -6.3405156454        2.1343778874       -0.9183413544
 C         -5.4216503957        0.3788215287       -0.0822250697
 H         -4.6863562704       -0.0781793615       -0.7482549025
 H         -6.3932753145       -0.0531047642       -0.3321388219
 C         -5.1029544001       -0.0278534402        1.3565663649
 H         -5.0681959069       -1.1192337000        1.4052047924
 H         -5.9007843418        0.3129700080        2.0202591703
 C         -3.7663768715        0.5110729337        1.8840330575
 H         -3.8449151263        1.5784078564        2.0917908448
 H         -3.5292953782       -0.0072002977        2.8168432784
 H         -4.0851639828        1.8603327353       -1.9824212243
 H         -4.4648182278        3.4719234745       -1.3702683279
 H         -2.2034237630        3.0576106151       -0.8256842084
 H         -3.1067668141        2.9502924910        0.6931086397
 O         -1.3532762711        0.8547404003       -0.9721393155
 C         -0.6512274757       -0.3418518366       -0.9562768875
 O          0.1996063858       -0.4516665470       -1.8579206437
 O         -2.1975495282       -1.8425107671        1.9574961303
 C         -0.1714797625       -2.5693002464        0.0756350316
 C          1.3135503736       -2.3130413993        0.1592338973
 C          2.2502034410       -3.1864026349       -0.3824649369
 C          3.6039638217       -2.9245410855       -0.2680096043
 C          4.0535437863       -1.7827675489        0.3696560400
 C          3.1248953354       -0.9043171232        0.9160556882
 C          1.7712337417       -1.1837150118        0.8241393212
 H          1.0662871571       -0.4968478505        1.2688734572
 N          3.5372967698        0.2706318601        1.5660531040
 S          2.6589350414        1.6774148789        1.4037945916
 O          3.5830724106        2.7155333683        1.8164590769
 O          1.4366554827        1.6036391033        2.1673430664
 C          2.2879458105        1.9017260259       -0.3271068370
 C          3.1473797907        1.4323203074       -1.2989682261
 C          2.8539375575        1.6834345063       -2.6290488806
 C          1.7227184148        2.4084441242       -2.9643164786
 C          0.8766862740        2.8842353953       -1.9767157852
 C          1.1589206709        2.6271617400       -0.6457910829
 H          0.5155276299        2.9596990411        0.1544669566
 H         -0.0081948227        3.4419720722       -2.2396686655
 H          1.4932187422        2.5970483790       -4.0012113659
 H          3.5062234493        1.3056097625       -3.3998206585
 H          4.0225048129        0.8672123227       -1.0232495476
 H          4.5305680529        0.4503778393        1.5442934274
 H          5.1091883416       -1.5714723938        0.4477704786
 H          4.3191668094       -3.6129367983       -0.6914625052
 H          1.9173847528       -4.0735495488       -0.8959547182
 H         -0.4842868116       -3.0742607865        1.0029328879
 C         -0.5504541279       -3.4434687976       -1.1048759414
 C         -0.6211318739       -4.9340074605       -0.9636478204
 C         -1.8807762505       -4.1331937543       -1.0923094825
 H         -2.4420216722       -4.1914669757       -2.0127806681
 H         -2.4959915910       -4.0009476454       -0.2139780757
 H         -0.3187692962       -5.5460528718       -1.8001287749
 H         -0.3914969546       -5.3583034520        0.0022424855
 H         -0.2089287328       -3.0320700516       -2.0481637792
