  62
        -98.94200319
 C         -0.6745170599       -1.3604136639        0.0165448369
 C         -1.4175477450       -0.7357333328        1.0427034590
 C         -2.4500090287        0.2290203102        0.6202305784
 C         -2.6276206604        0.4685494172       -0.6927172384
 C         -3.6409057973        1.3192170804       -1.4317880801
 C         -4.7544469075        2.0373936437       -0.6749661254
 C         -5.8631167830        1.1166213001       -0.1617980310
 H         -6.5214285450        1.6953499160        0.4894387266
 H         -6.4541733970        0.7818469321       -1.0179565086
 C         -5.3953693861       -0.1305777032        0.5842306003
 H         -6.2787035280       -0.7280132008        0.8255831630
 H         -4.7646999772       -0.7367866493       -0.0687880403
 C         -4.6454444187        0.1332970702        1.8872989551
 H         -4.4769030537       -0.8301092538        2.3765241187
 H         -5.2623641959        0.7413321299        2.5523240152
 C         -3.2789531545        0.8169644913        1.7267934621
 H         -2.7123189519        0.6560397062        2.6492051381
 H         -3.3913542268        1.8908071720        1.5990583114
 H         -5.2120888710        2.7387057599       -1.3777055285
 H         -4.3392361095        2.6309956304        0.1342639309
 H         -3.0601938271        2.0600980530       -1.9880401178
 H         -4.0904249682        0.6611736828       -2.1828340570
 O         -1.8163167573       -0.0880132317       -1.6395186184
 C         -0.8311228419       -1.0065990386       -1.3219059646
 O         -0.1866484577       -1.4267274573       -2.2998790863
 O         -1.2434272393       -0.9862996990        2.2666475900
 C          0.3158456291       -2.4521232980        0.3793470276
 C          1.7067388337       -2.0710568836       -0.0572414117
 C          2.4823832225       -2.8381223251       -0.9162021157
 C          3.7505983037       -2.4169798344       -1.2763433797
 C          4.2693472417       -1.2319339357       -0.7897502095
 C          3.5047180784       -0.4628821903        0.0817723074
 C          2.2356047163       -0.8860996513        0.4412829655
 H          1.6504527895       -0.2918284899        1.1287710966
 N          4.0144692821        0.7311511715        0.6082799601
 S          3.0157625303        1.9552080369        1.1216653512
 O          3.8673648137        3.1269829668        1.1228069180
 O          2.4205631050        1.6224718784        2.3917258150
 C          1.7491260275        2.1685121594       -0.1168490593
 C          0.4933309962        2.5608920830        0.2982604090
 C         -0.4730848400        2.8417750593       -0.6533564493
 C         -0.1723821655        2.7084367135       -1.9995039805
 C          1.0871730580        2.2943751412       -2.4011877392
 C          2.0631961850        2.0322175125       -1.4540537289
 H          3.0526935694        1.7220438139       -1.7475408008
 H          1.3118172429        2.1768069419       -3.4489356427
 H         -0.9221661062        2.9255485566       -2.7440788467
 H         -1.4529330327        3.1621577375       -0.3377175566
 H          0.2943601296        2.6336028150        1.3560457750
 H          4.8722777015        1.0667383532        0.1973623010
 H          5.2575286137       -0.9033676102       -1.0726344772
 H          4.3417116124       -3.0187556844       -1.9496458709
 H          2.0932541790       -3.7618207265       -1.3103166672
 H          0.3087793206       -2.4978538134        1.4785573101
 C         -0.1563650183       -3.7834542085       -0.1675988994
 C          0.2727407446       -5.0603322067        0.4890175423
 C         -1.1416779888       -4.5850740383        0.6267758438
 H         -1.9197738356       -5.1162305846        0.0992337623
 H         -1.4577214468       -4.1814378919        1.5778293784
 H          0.4643594267       -5.9221039434       -0.1320933927
 H          0.9186524390       -4.9850405174        1.3506901064
 H         -0.2759111839       -3.7748873105       -1.2452301953
