  62
        -98.93039477
 C          2.1520803596        0.7900943793        0.2933599798
 C          2.6831505697       -0.2413918106        1.1056630098
 C          3.4545182896       -1.2974927207        0.4273948399
 C          3.5754753194       -1.2655425509       -0.9126062801
 C          4.2579030793       -2.2156638410       -1.8743695701
 C          5.2501414393       -3.2597956110       -1.3686579601
 C          6.5462230494       -2.6869743409       -0.7962499103
 H          7.1312030794       -3.5119527709       -0.3838466503
 H          7.1226534893       -2.2467663910       -1.6138388805
 C          6.3763897195       -1.6140812608        0.2765754296
 H          7.3738497296       -1.2979952107        0.5939280794
 H          5.8855216195       -0.7390233208       -0.1546921605
 C          5.6092203297       -2.0509344106        1.5232508597
 H          5.7049538498       -1.2529070605        2.2646959396
 H          6.0672808997       -2.9498138605        1.9402495998
 C          4.1070085397       -2.3147935206        1.3185470099
 H          3.6135714998       -2.2313459105        2.2913176700
 H          3.9289835096       -3.3213210906        0.9476079601
 H          5.5158280292       -3.8780887511       -2.2304417401
 H          4.7725650394       -3.9156549009       -0.6467345000
 H          3.4501016792       -2.7330350711       -2.4037436999
 H          4.7532597192       -1.5811429811       -2.6161713402
 O          2.9855883993       -0.2891209409       -1.6613392602
 C          2.2731877694        0.7594555991       -1.0957130402
 O          1.8154793993        1.5608195690       -1.9297245203
 O          2.5110673398       -0.2871802704        2.3537282599
 C          1.3765050597        1.8995834194        0.9798638397
 C          0.0639157496        2.1331381394        0.2747550799
 C         -0.2794317804        3.3311403693       -0.3357084402
 C         -1.5030501305        3.4673830892       -0.9683212401
 C         -2.4053850705        2.4212652693       -1.0073173899
 C         -2.0739304905        1.2180592793       -0.3968888098
 C         -0.8520329604        1.0879456394        0.2456917001
 H         -0.5904767804        0.1500476094        0.7214771502
 N         -2.9730071405        0.1336564493       -0.4480210095
 S         -4.5939384205        0.4613097394       -0.0987444093
 O         -5.2033358606        1.0579268493       -1.2602963593
 O         -4.6941163603        1.2227134396        1.1270475406
 C         -5.2299973205       -1.1860652405        0.1361334010
 C         -5.3636683003       -1.6865839604        1.4172220610
 C         -5.8373094803       -2.9783320503        1.5857176913
 C         -6.1637854605       -3.7438004205        0.4764075214
 C         -6.0240346906       -3.2271823006       -0.8033162487
 C         -5.5525482206       -1.9360331107       -0.9789371389
 H         -5.4361653107       -1.4896685308       -1.9526777490
 H         -6.2812802807       -3.8248761208       -1.6628302086
 H         -6.5325340805       -4.7484562605        0.6104678716
 H         -5.9499459002       -3.3816689502        2.5792131513
 H         -5.1056540002       -1.0528498203        2.2506525509
 H         -2.6469339705       -0.6476549406        0.1051594806
 H         -3.3601438706        2.5195125592       -1.4979772998
 H         -1.7561460805        4.4025591492       -1.4451194002
 H          0.4186996896        4.1518564893       -0.3370527404
 H          1.1515762898        1.4936450096        1.9808192298
 C          2.1761170998        3.1738227994        1.2055192295
 C          3.6622935698        3.1258051894        1.3935003693
 C          3.0828215896        3.7533306493        0.1631129093
 H          3.1297798697        4.8283891593        0.0671593391
 H          3.1667043495        3.2284293592       -0.7753584307
 H          4.1065904799        3.7667546595        2.1401219691
 H          4.1474305998        2.1652547194        1.2976248793
 H          1.6368198299        3.8815263095        1.8280859394
