  62
        -98.93478690
 C         -2.1785312499       -0.7715427288        0.7245067523
 C         -2.5255008156       -0.3963219348       -0.5981820093
 C         -3.3443395301        0.8216806381       -0.7224479751
 C         -3.6508925769        1.5330199297        0.3760208372
 C         -4.5189716670        2.7569377762        0.3954316423
 C         -5.9919878268        2.3904619323        0.6258810174
 C         -6.5005632615        1.2724164525       -0.2842582301
 H         -5.9803358857        0.3451285538       -0.0337922450
 H         -7.5571538584        1.1211879182       -0.0530327921
 C         -6.3402045592        1.5529099282       -1.7849121322
 H         -7.2667497513        1.2781145164       -2.2933004016
 H         -6.1857352651        2.6201657064       -1.9476656024
 C         -5.2124837948        0.7694959506       -2.4593692976
 H         -5.3257866945        0.8745391138       -3.5415402848
 H         -5.3107314869       -0.2924344290       -2.2210231359
 C         -3.7875268106        1.2127131673       -2.1042446129
 H         -3.1003065841        0.7100080531       -2.7910346971
 H         -3.6888631187        2.2904659281       -2.2495610729
 H         -6.1097814645        2.0683237927        1.6631618302
 H         -6.5969925044        3.2868316859        0.4779408756
 H         -4.1822057823        3.4041917006        1.2071852154
 H         -4.4083870286        3.2884659008       -0.5478501367
 O         -3.2311000671        1.1850983135        1.6202141449
 C         -2.4927910382        0.0330571322        1.8222092905
 O         -2.1742785758       -0.1637726900        3.0147293356
 H          0.6170088880       -0.7027087114        2.0915513595
 C          0.9123563211       -1.0828890793        1.1206231214
 C          0.0025380359       -1.8473183482        0.3939979263
 C          0.3887060436       -2.2907988091       -0.8646661750
 C          1.6461442872       -1.9890290729       -1.3613504142
 C          2.5445879026       -1.2352916299       -0.6298796344
 C          2.1651897054       -0.7678748965        0.6212863458
 N          3.0635104607        0.0169638913        1.3727115241
 S          3.6206705263        1.4240874883        0.6373851983
 O          3.9769003789        2.3080600601        1.7263796766
 O          2.6650343361        1.9347231210       -0.3193387951
 C          5.1060377076        0.9021101366       -0.1942625778
 C          5.2336349942        1.0843828623       -1.5572589835
 C          6.4006744661        0.6715605651       -2.1815438891
 C          7.4130561961        0.0874115440       -1.4357127014
 C          7.2699714190       -0.0859959171       -0.0669470896
 C          6.1067333304        0.3256011089        0.5635521849
 H          5.9560705014        0.2136187672        1.6242323587
 H          8.0594835095       -0.5404521027        0.5095400787
 H          8.3190540885       -0.2345455383       -1.9244076390
 H          6.5136016102        0.8058311865       -3.2453604185
 H          4.4163731196        1.5368817785       -2.0961971467
 H          2.7210502640        0.2305145447        2.2993388068
 H          3.5206880860       -0.9967272436       -1.0195890769
 H          1.9254137696       -2.3439335892       -2.3417966966
 H         -0.2967162183       -2.8407920809       -1.4832884498
 C         -1.3560718277       -2.0210958399        1.0278125864
 H         -1.1912906293       -1.9750337859        2.1155274107
 C         -2.1503839960       -3.3017272816        0.8117445700
 C         -2.5412070710       -3.8999932221       -0.5047347679
 C         -1.5381873036       -4.5955241528        0.3647921150
 H         -1.8410539787       -5.5016624973        0.8681439562
 H         -0.5021907550       -4.5843919500        0.0656461540
 H         -3.5334307500       -4.3236092180       -0.5760801795
 H         -2.2268384483       -3.4064565081       -1.4085420535
 H         -2.9088435175       -3.3822024629        1.5878443973
 O         -2.1840618064       -1.0283348451       -1.6272767437
