  62
        -98.93673250
 C         -2.5653969078       -0.0819871321        0.0523555077
 C         -2.3964171654        1.0039799925        0.9385967142
 C         -1.9706328782        2.2897170180        0.3548587354
 C         -1.7412326252        2.3527099170       -0.9699374029
 C         -1.2795774068        3.5296703029       -1.7894231745
 C          0.2188977286        3.8185815180       -1.6256422351
 C          0.7104124576        3.8424329122       -0.1815455991
 H          0.5527316886        2.8560359432        0.2590198201
 H          1.7912044081        4.0075389338       -0.2078044609
 C          0.0935037216        4.9250325080        0.7019729730
 H          0.2686995457        5.9007720747        0.2433119949
 H          0.6288222880        4.9049140998        1.6545814738
 C         -1.4020747956        4.7877905775        1.0014174269
 H         -2.0085021665        5.1513561876        0.1760744985
 H         -1.6222480051        5.4339098898        1.8561791850
 C         -1.8441659923        3.3813064446        1.3901412558
 H         -1.1705220991        2.9920782151        2.1624581906
 H         -2.8280803361        3.4417131575        1.8707788252
 H          0.7745063760        3.0347486037       -2.1477525882
 H          0.4389552406        4.7733904499       -2.1077739134
 H         -1.4707566399        3.2730499119       -2.8341135536
 H         -1.8689460934        4.4099910398       -1.5500052512
 O         -1.8953342838        1.2698491545       -1.7859530110
 C         -2.2747899365        0.0322228144       -1.3065299590
 O         -2.3350973725       -0.8619623042       -2.1732567579
 O         -2.5877695364        0.9075156928        2.1834789789
 C         -2.9248431936       -1.4484880348        0.6138196105
 C         -1.7317591769       -2.3470377508        0.3994226088
 C         -1.7707734909       -3.5702107084       -0.2554056063
 C         -0.6010025180       -4.2665484663       -0.5133183020
 C          0.6288735544       -3.7564936278       -0.1368527974
 C          0.6710136243       -2.5521860738        0.5483597319
 C         -0.4986962010       -1.8707842419        0.8281730923
 H         -0.4487822162       -0.9183137342        1.3420451614
 N          1.9358407057       -1.9685801259        0.8770469862
 S          2.2653252510       -0.7266798640       -0.2329540932
 O          1.5165838985        0.4650853795        0.1070075991
 O          2.0777231879       -1.2584731416       -1.5591399459
 C          4.0029215559       -0.4542407862        0.0638812920
 C          4.8876137374       -1.4415698013       -0.3253036986
 C          6.2390471851       -1.2661479929       -0.0763072019
 C          6.6808499598       -0.1124130769        0.5548634662
 C          5.7810197303        0.8699674141        0.9383225526
 C          4.4269104994        0.6990755755        0.6937691173
 H          3.6905015382        1.4366842448        0.9707190518
 H          6.1265836340        1.7668067060        1.4268679285
 H          7.7334138058        0.0225315034        0.7476677187
 H          6.9419916761       -2.0273554078       -0.3740206876
 H          4.4964341248       -2.3155467465       -0.8188303286
 H          1.9052129864       -1.5342010141        1.7920716768
 H          1.5480706174       -4.2662552842       -0.3738988852
 H         -0.6485151232       -5.2083214384       -1.0386490144
 H         -2.7157597430       -3.9667606620       -0.5895792117
 H         -3.0601125972       -1.2967033053        1.6949230454
 C         -4.2120632928       -1.9775953413        0.0231601282
 C         -5.0234221430       -2.9854318975        0.7800472081
 C         -5.5153779310       -1.5767893585        0.6444025900
 H         -6.3556841646       -1.3817825001       -0.0045433784
 H         -5.4745366965       -0.9330854720        1.5109500065
 H         -5.5306523180       -3.7598446816        0.2251238055
 H         -4.6528533265       -3.3019511208        1.7431883827
 H         -4.1740572515       -2.0529730038       -1.0574536369
