  62
        -98.93533175
 C          1.9479706608        0.9761209009       -0.1966066831
 C          2.5684447878        0.3990771749        0.9395591671
 C          2.9226458829       -1.0265022872        0.8625886787
 C          2.6085932332       -1.7113694284       -0.2501231267
 C          2.9097702710       -3.1530187706       -0.5556268197
 C          4.2354958887       -3.2824279579       -1.3251620268
 C          5.4827821541       -3.3807729846       -0.4473908511
 H          5.4971626768       -4.3546327990        0.0462289876
 H          6.3497476835       -3.3357059302       -1.1103443985
 C          5.6211442948       -2.2901363693        0.6179377696
 H          5.3515747098       -1.3227493169        0.1903890395
 H          6.6724689825       -2.2352466823        0.9067736107
 C          4.7751021803       -2.5599170730        1.8711683208
 H          5.4062570051       -2.4770175304        2.7583350633
 H          4.4138923750       -3.5877047531        1.8429597543
 C          3.5915002110       -1.6037288837        2.0805122553
 H          2.8302042906       -2.1027464041        2.6897561960
 H          3.9233877725       -0.7309600839        2.6517928689
 H          4.1906110845       -4.1756298842       -1.9516281094
 H          4.3194493088       -2.4199712425       -1.9914818082
 H          2.9228609637       -3.7437392623        0.3556515172
 H          2.0977381187       -3.5091273982       -1.1934537979
 O          1.9955230373       -1.1283988700       -1.3148333027
 C          1.6418617430        0.2120252356       -1.3230050262
 O          1.0913535580        0.5700275642       -2.3833925168
 O          2.8328658597        1.0623375882        1.9802200853
 C          1.5695988169        2.4416890286       -0.0751646145
 C          0.1886947428        2.5756052318        0.5242454376
 C         -0.0415428752        3.4291227123        1.5969228993
 C         -1.3009214900        3.5279923095        2.1606321429
 C         -2.3465719093        2.7616150326        1.6799382836
 C         -2.1273503086        1.9093228311        0.6030757220
 C         -0.8713236405        1.8364535271        0.0196141932
 H         -0.7226993799        1.1724531647       -0.8190466641
 N         -3.1660341029        1.1190107959        0.0866622228
 S         -2.7853566859       -0.4470034724       -0.4271113835
 O         -1.7692954257       -1.0158409344        0.4301706088
 O         -2.5070921961       -0.4176540800       -1.8403571615
 C         -4.3502754805       -1.2598608235       -0.1507080107
 C         -4.5597904146       -1.9370825309        1.0357647123
 C         -5.7916455463       -2.5318115209        1.2601393039
 C         -6.7890292270       -2.4366326860        0.3012501460
 C         -6.5637139670       -1.7547002504       -0.8854191704
 C         -5.3340459214       -1.1586066734       -1.1164201780
 H         -5.1079226955       -0.6262312125       -2.0256289271
 H         -7.3398745825       -1.6852325619       -1.6302632152
 H         -7.7468335625       -2.8995260977        0.4787041352
 H         -5.9677705374       -3.0656505703        2.1800425410
 H         -3.7514421855       -1.9911818754        1.7474363592
 H         -3.9971874003        1.1334326528        0.6622399046
 H         -3.3248295445        2.8188568120        2.1325464376
 H         -1.4654458029        4.1929036606        2.9947113934
 H          0.7802812979        4.0007522676        2.0016112030
 H          2.2834238749        2.8690488576        0.6435787377
 C          1.6588805665        3.2313113192       -1.3652861978
 C          1.8800737989        4.7119403253       -1.2997260365
 C          2.9749487297        3.8109864468       -1.7849273872
 H          3.2227166395        3.8107279649       -2.8355344927
 H          3.8227233762        3.6431990397       -1.1366410180
 H          1.3729551884        5.3377277080       -2.0176274681
 H          1.9902602135        5.1601556314       -0.3241402431
 H          1.0113664759        2.8510060260       -2.1446872022
