  62
        -98.94591747
 C          1.2882840414        1.4231483404        0.6123445602
 C          2.3608926183        1.3108688899       -0.3068049880
 C          3.3666314160        0.2811250769        0.0016800287
 C          3.2228115735       -0.4828834277        1.0986252602
 C          4.1520467815       -1.5898169839        1.5046469577
 C          3.7240319323       -2.9411887500        0.9147206264
 C          3.4149567575       -2.8947811747       -0.5814955497
 H          3.1499998452       -3.9086704834       -0.8886503961
 H          2.5392291389       -2.2638305968       -0.7484437617
 C          4.5726432857       -2.3875346704       -1.4521518825
 H          5.5096514708       -2.4489265203       -0.8973246387
 H          4.6687064232       -3.0399034529       -2.3225265756
 C          4.3894736590       -0.9638212464       -1.9804137647
 H          3.4091768847       -0.8707383519       -2.4542446842
 H          5.1441303981       -0.7878874910       -2.7515792646
 C          4.5307888018        0.1547823578       -0.9406554461
 H          5.4621029498        0.0254951958       -0.3852857641
 H          4.5822761321        1.1047870258       -1.4803370391
 H          4.5210215179       -3.6634923364        1.1007967900
 H          2.8309992974       -3.2846751022        1.4421983392
 H          5.1600643675       -1.3438501897        1.1755969730
 H          4.1445953413       -1.6601622713        2.5939072768
 O          2.1782731692       -0.3494685678        1.9565952759
 C          1.1970365529        0.6029631861        1.7400293090
 O          0.3071426160        0.6224558598        2.6152660978
 H         -2.2228182559        1.2619735253        0.8470309068
 C         -1.9945190636        1.3516970417       -0.2045850246
 C         -0.8071336360        1.9476489494       -0.6079813682
 C         -0.5415838735        2.0552683523       -1.9692404335
 C         -1.4494796452        1.5795460236       -2.8974483107
 C         -2.6275952237        0.9774413959       -2.4919315178
 C         -2.8997862698        0.8590624353       -1.1343581541
 N         -4.0889458104        0.2554276919       -0.6917417712
 S         -4.0350730432       -0.8275502423        0.5833505110
 O         -5.2568513062       -1.5920667690        0.4515850006
 O         -3.8634060187       -0.1221733755        1.8266161889
 C         -2.6313769935       -1.8678085511        0.2290681439
 C         -1.4380112010       -1.6835672735        0.8951651308
 C         -0.3523242693       -2.4725527482        0.5477912863
 C         -0.4741559151       -3.4231339904       -0.4525561230
 C         -1.6834722726       -3.5997689571       -1.1086015664
 C         -2.7717462448       -2.8143027728       -0.7683689257
 H         -3.7318846498       -2.9300733471       -1.2446741347
 H         -1.7777243377       -4.3445389607       -1.8822789830
 H          0.3772642980       -4.0299602123       -0.7178061565
 H          0.5828715546       -2.3275260586        1.0657007232
 H         -1.3594591963       -0.9376179593        1.6708481150
 H         -4.6779107254       -0.0931787424       -1.4345348246
 H         -3.3334729130        0.6039819968       -3.2180333802
 H         -1.2335475788        1.6713859092       -3.9510385651
 H          0.3900997083        2.4912702904       -2.2918313076
 C          0.1642190407        2.4348745623        0.4411251261
 H         -0.3688576799        2.4493240256        1.4017280611
 C          0.6674819787        3.8358666768        0.1554179226
 C         -0.2586163556        4.9934494346        0.3701203592
 C          0.8982198619        4.7761766850        1.2979729112
 H          1.7371840223        5.4539224314        1.2462615702
 H          0.6918873859        4.4138151415        2.2950577047
 H         -0.2164249437        5.8227672592       -0.3190369375
 H         -1.2506096354        4.7771461040        0.7383816226
 H          1.3593326269        3.8897508145       -0.6740901726
 O          2.4990162200        2.0278458335       -1.3311638692
