  62
        -98.94549847
 C         -2.4783074773       -1.1996949616       -0.0008768053
 C         -3.1810122344       -0.4113426012        0.9409740852
 C         -3.8543050679        0.7772864255        0.4068058524
 C         -3.7748275159        1.0548817307       -0.9075538357
 C         -4.4241642534        2.2187477439       -1.6061995544
 C         -3.6112999360        3.5190185414       -1.5387267613
 C         -3.5919830747        4.2035724451       -0.1713840977
 H         -3.1739110031        5.2013195597       -0.3184728970
 H         -4.6145398298        4.3273297337        0.1865286576
 C         -2.7582236470        3.4725837086        0.8904470433
 H         -2.0870768556        2.7622169249        0.3998522013
 H         -2.1259450433        4.1920822154        1.4163280452
 C         -3.5837873355        2.7350877872        1.9453840536
 H         -2.8956018296        2.2258531823        2.6252286917
 H         -4.1588919861        3.4572895515        2.5287692492
 C         -4.5488824474        1.6874807131        1.3745694699
 H         -5.3958744512        2.1778605398        0.8958936441
 H         -4.9176537672        1.0754327964        2.2012362530
 H         -2.5864701083        3.3082107939       -1.8550635362
 H         -4.0454516317        4.2129088325       -2.2622078223
 H         -5.4182722540        2.3876747480       -1.1914736690
 H         -4.5274507337        1.9324251634       -2.6549675124
 O         -3.0868126383        0.2729054490       -1.7811716528
 C         -2.3994192674       -0.8538771210       -1.3502467252
 O         -1.7795484965       -1.4502426165       -2.2504222711
 O         -3.2382376844       -0.6851664570        2.1706003256
 C         -1.7276810441       -2.4275239428        0.4846035447
 C         -0.2487158306       -2.2246534814        0.2630002266
 C          0.5641697242       -3.1263303124       -0.4095359979
 C          1.9068741705       -2.8482181075       -0.6028939861
 C          2.4674516050       -1.6776763557       -0.1267651258
 C          1.6645919241       -0.7717524846        0.5548389438
 C          0.3223048571       -1.0535192978        0.7479892373
 H         -0.3040541986       -0.3433314862        1.2751178287
 N          2.2282656131        0.4194726417        1.0527646430
 S          3.0117546042        1.4131342231       -0.0553725105
 O          2.9463524883        2.7406549155        0.5171854244
 O          2.4674659252        1.2591294278       -1.3851268077
 C          4.6977490571        0.8434623797       -0.0087918399
 C          5.3526870114        0.8497476163        1.2073851249
 C          6.6653130767        0.4092215102        1.2620553774
 C          7.2977412376       -0.0248109373        0.1062872720
 C          6.6276111788       -0.0208441881       -1.1074925913
 C          5.3137760057        0.4175829170       -1.1690832525
 H          4.7495274217        0.4317530862       -2.0880942454
 H          7.1206282328       -0.3581918414       -2.0050468165
 H          8.3191034216       -0.3683430651        0.1515304562
 H          7.1898956490        0.4049895356        2.2038508623
 H          4.8252441864        1.1979913729        2.0796720360
 H          1.5804261902        0.9656421701        1.6032244620
 H          3.5107233979       -1.4560726232       -0.2816033991
 H          2.5255060949       -3.5542892766       -1.1354287194
 H          0.1447075708       -4.0407705052       -0.7949443935
 H         -1.9077153251       -2.4682089675        1.5693018807
 C         -2.2782903473       -3.6865737362       -0.1486396492
 C         -2.1376659776       -5.0031911960        0.5535135071
 C         -3.4784683736       -4.3403291436        0.4656789296
 H         -4.2248266513       -4.7650687016       -0.1885819366
 H         -3.8873691562       -3.8886506199        1.3577898651
 H         -1.9650896732       -5.8880259159       -0.0401391812
 H         -1.6365522160       -5.0077776710        1.5095189391
 H         -2.2165360045       -3.6708647583       -1.2307910731
