  62
        -98.94424848
 C          2.2693283418        1.1025795932        0.2245669879
 C          2.3723960651       -0.0732274079       -0.5575899786
 C          3.2683105215       -1.1168539758       -0.0351249644
 C          3.8972985621       -0.9284647540        1.1385019316
 C          4.8698442911       -1.8880311805        1.7589870521
 C          6.3092462055       -1.5835285635        1.3202594647
 C          6.4719296507       -1.4135345249       -0.1901699977
 H          5.9301683715       -0.5200590350       -0.5085728483
 H          7.5313556309       -1.2339391402       -0.3849686837
 C          5.9963474449       -2.6149652422       -1.0188265023
 H          6.7441306354       -2.8305606605       -1.7848401847
 H          5.9205473121       -3.4976595161       -0.3828151846
 C          4.6666407318       -2.3985119482       -1.7436545111
 H          4.7055593522       -1.4645083985       -2.3098088848
 H          4.5343043708       -3.2116615385       -2.4624073570
 C          3.4184279828       -2.3696529895       -0.8522672779
 H          2.5410673417       -2.4099488582       -1.5048528762
 H          3.4036922848       -3.2521816377       -0.2091369696
 H          6.9539431836       -2.3921908116        1.6690970082
 H          6.6302304514       -0.6589315787        1.8053884914
 H          4.8012823573       -1.7915528682        2.8438605340
 H          4.5992800639       -2.9039802565        1.4776365418
 O          3.7491620945        0.1982798484        1.8794989703
 C          2.9438234869        1.2345165090        1.4433313772
 O          2.9113134284        2.2134114316        2.2150068236
 H         -0.2955423234        0.6468739886       -1.5255833384
 C         -0.7716191271        1.0935439322       -0.6659202553
 C         -0.0491682111        1.9637219215        0.1376619357
 C         -0.6651434591        2.4916216552        1.2670936075
 C         -1.9713536219        2.1580410912        1.5782933909
 C         -2.6872031423        1.2877603118        0.7752357121
 C         -2.0752407664        0.7438853401       -0.3459457523
 N         -2.7869475479       -0.1608350830       -1.1575006565
 S         -3.4473649380       -1.5036577171       -0.3909019531
 O         -2.7118649186       -1.8489041983        0.8045206437
 O         -3.5354881936       -2.5255621996       -1.4113871551
 C         -5.0942768692       -0.9748709813        0.0348733510
 C         -5.5215116383       -1.0375662409        1.3466362172
 C         -6.8110350795       -0.6299368284        1.6517386654
 C         -7.6458950044       -0.1700696923        0.6448989337
 C         -7.2022100481       -0.1153868761       -0.6681776364
 C         -5.9148547650       -0.5222489560       -0.9799103639
 H         -5.5321951438       -0.4997866697       -1.9865746589
 H         -7.8544286012        0.2425943681       -1.4483832236
 H         -8.6484932900        0.1467986814        0.8851084088
 H         -7.1573599949       -0.6721175874        2.6719270074
 H         -4.8349619938       -1.3973703508        2.0965223620
 H         -2.2601377746       -0.4537081149       -1.9690448146
 H         -3.7022876129        1.0170247479        1.0165708993
 H         -2.4362800341        2.5772777075        2.4576040288
 H         -0.1016497211        3.1510717562        1.9117035417
 C          1.3943710369        2.2858673094       -0.1671260042
 H          1.6991755028        3.1080698752        0.4936159867
 C          1.5997246990        2.7246585502       -1.6031375791
 C          1.1494286312        4.0934910135       -2.0127761839
 C          2.6122446670        3.7864267391       -1.9050084013
 H          3.1917811314        3.7017346625       -2.8121391628
 H          3.1622407665        4.2039713937       -1.0740147014
 H          0.7219810154        4.2226811023       -2.9951435766
 H          0.7067484670        4.7202363721       -1.2534868589
 H          1.4977214226        1.9231350008       -2.3223890774
 O          1.7630141805       -0.2650952018       -1.6446558167
