  62
        -98.93740558
 C         -1.8552676241       -0.6058600495       -0.7768966964
 C         -2.1814910708       -0.0974639764        0.5014889584
 C         -3.6119514114       -0.1087314940        0.8605263186
 C         -4.5038046104       -0.5978724917       -0.0185378827
 C         -5.9993415564       -0.6548916845        0.1288719359
 C         -6.6556310614        0.5865119630       -0.4988977362
 C         -6.7796551817        1.7904090857        0.4341507064
 H         -7.1364844442        2.6306996076       -0.1658922200
 H         -7.5401901239        1.5815624989        1.1895304024
 C         -5.4874567890        2.2055171750        1.1423413194
 H         -5.5992987779        3.2438205016        1.4606495944
 H         -4.6545187101        2.1711801470        0.4378518204
 C         -5.1681354357        1.3410465205        2.3711189386
 H         -4.9765501934        1.9890269481        3.2288973234
 H         -6.0445718365        0.7449442937        2.6247692446
 C         -3.9439108932        0.4248116731        2.2274324405
 H         -3.0444106811        0.9665082078        2.5364697884
 H         -4.0484689379       -0.4211036556        2.9151609261
 H         -7.6576297620        0.3184277331       -0.8401332405
 H         -6.0731540519        0.8625545767       -1.3816464310
 H         -6.3321127958       -1.5386802939       -0.4195672728
 H         -6.2806182842       -0.7640175682        1.1720457552
 O         -4.1430770969       -1.0827628183       -1.2396620752
 C         -2.8231230828       -1.0998160635       -1.6496489109
 O         -2.6399791286       -1.5773928989       -2.7883286156
 H          2.1268558859       -0.1059276424       -0.2920906612
 C          1.7127284452       -1.0186373405        0.1024334198
 C          0.4398955357       -1.4254181223       -0.2664724297
 C         -0.0528721085       -2.6205982403        0.2511725681
 C          0.6985784619       -3.3728290583        1.1321913122
 C          1.9680874007       -2.9621754334        1.4991207964
 C          2.4776026853       -1.7813245011        0.9751705837
 N          3.7568578352       -1.3326798141        1.3332389279
 S          4.7519072299       -0.6292161222        0.1884815574
 O          4.5449069754       -1.1986365831       -1.1225572393
 O          6.0862838685       -0.7660992795        0.7337711182
 C          4.3121680487        1.0960216256        0.1874826686
 C          4.3861501610        1.7988795622       -0.9988220229
 C          4.0944281434        3.1541524015       -0.9960373471
 C          3.7354917437        3.7797411761        0.1877457587
 C          3.6676802991        3.0597854096        1.3709259445
 C          3.9626849035        1.7058152348        1.3759234281
 H          3.9151711929        1.1176443601        2.2769816015
 H          3.3844321973        3.5487384809        2.2891717881
 H          3.5056567954        4.8336104616        0.1876631887
 H          4.1468315455        3.7150207144       -1.9158722153
 H          4.6574847621        1.2701492864       -1.8987894187
 H          4.2691820009       -1.9470209277        1.9490245395
 H          2.5581704908       -3.5502945291        2.1855063873
 H          0.2966734168       -4.2918777983        1.5319087474
 H         -1.0409471741       -2.9493306186       -0.0421159250
 C         -0.4082482786       -0.6322045147       -1.2313379980
 H         -0.4008486142       -1.1598624594       -2.1972073558
 C          0.0896032057        0.7827340478       -1.4462273323
 C          1.1321308916        1.0744196741       -2.4819209598
 C         -0.2877603971        1.4961773619       -2.7084283044
 H         -0.5284574890        2.5471689959       -2.6555545162
 H         -0.8782192336        0.9479120499       -3.4284590213
 H          1.8647191565        1.8386168194       -2.2701330867
 H          1.5165564749        0.2433559712       -3.0544594472
 H          0.1045288031        1.3596253488       -0.5284882946
 O         -1.3228552201        0.3488602828        1.3061759164
