  62
        -98.93419720
 C         -2.5113446771       -0.7600166974        0.9630054906
 C         -3.5634597500       -1.1106358622        0.0807112809
 C         -4.8103803151       -0.3412498761        0.2357802638
 C         -4.8868544451        0.6259720048        1.1663234302
 C         -6.0724087381        1.5202908825        1.3830883181
 C         -5.9641600933        2.8012735923        0.5441384823
 C         -5.6261432905        2.5507961116       -0.9255719918
 H         -5.6068392209        3.5220565900       -1.4248213742
 H         -4.6177908259        2.1356286531       -0.9941723005
 C         -6.6075655304        1.6214459167       -1.6533266724
 H         -7.5409121878        1.5561484341       -1.0929295503
 H         -6.8438650620        2.0555373548       -2.6271737877
 C         -6.0727190820        0.2118168958       -1.9122891541
 H         -5.0923563750        0.2745947117       -2.3914315289
 H         -6.7481225497       -0.2843070280       -2.6144708572
 C         -5.9499552886       -0.6924033885       -0.6793618721
 H         -6.8951063707       -0.6995370789       -0.1327806257
 H         -5.7483412964       -1.7080197939       -1.0325553554
 H         -6.9102913443        3.3410478676        0.6147157868
 H         -5.1805987771        3.4306299878        0.9724269089
 H         -6.9807405287        0.9796652952        1.1242337262
 H         -6.1098267536        1.7909562056        2.4396160715
 O         -3.8572333078        0.9330471963        1.9965043789
 C         -2.6528161420        0.2582133836        1.9100907379
 O         -1.7926466219        0.6416307215        2.7290027716
 O         -3.4902065245       -2.0106636217       -0.7939461068
 C         -1.1520236818       -1.4399980599        0.9510687650
 C         -0.2202104245       -0.7551896458       -0.0165311625
 C         -0.6029462302       -0.5011817324       -1.3297533473
 C          0.2667155566        0.1250646792       -2.2039935215
 C          1.5289562730        0.5124026548       -1.7898283998
 C          1.9220218397        0.2627399461       -0.4818740304
 C          1.0481691937       -0.3719759829        0.3932317294
 H          1.3518794430       -0.5528143621        1.4156300149
 N          3.1949423568        0.6707126837       -0.0479552048
 S          4.4916839692        0.4189247744       -1.1028675790
 O          4.5339235456        1.5122186106       -2.0413221661
 O          4.4086969560       -0.9044512425       -1.6782116973
 C          5.8720097097        0.5285770462        0.0175953700
 C          6.4572450049       -0.6321003198        0.4866180910
 C          7.5163124660       -0.5363095167        1.3756902027
 C          7.9665808079        0.7112325744        1.7805743092
 C          7.3685017812        1.8672906375        1.3008366241
 C          6.3102304491        1.7791036355        0.4106383725
 H          5.8214594122        2.6495455470        0.0051447118
 H          7.7234606819        2.8349751376        1.6166625685
 H          8.7908894583        0.7830284953        2.4724198031
 H          7.9853178096       -1.4328961691        1.7478830010
 H          6.0790592325       -1.5798806124        0.1382422447
 H          3.4067322197        0.3443192895        0.8849979760
 H          2.2156741608        0.9989544109       -2.4638321052
 H         -0.0407013342        0.3143682044       -3.2218710702
 H         -1.5839212517       -0.8082055341       -1.6594863450
 H         -0.7467080668       -1.2836945410        1.9634555039
 C         -1.2353207943       -2.9445327593        0.7296942147
 C         -0.7649362903       -3.6310230681       -0.5134322900
 C          0.0148707967       -3.7737160377        0.7567608127
 H         -0.0014821995       -4.7203026527        1.2752604596
 H          0.9572689224       -3.2499611480        0.8198662640
 H         -1.3437174430       -4.4693944421       -0.8695140439
 H         -0.3437393556       -3.0294684283       -1.3036213702
 H         -2.1098282538       -3.3725478597        1.2087608139
