  62
        -98.94588697
 C         -1.5732181529       -1.4561843761       -0.2003165614
 C         -1.5468166183       -0.0687388066       -0.4827101606
 C         -2.8587721713        0.5671570053       -0.6724522636
 C         -3.9735341170       -0.1810388795       -0.5850543187
 C         -5.3723579624        0.3512475336       -0.6978663860
 C         -5.9280756230        0.7453297262        0.6779541737
 C         -4.9824438613        1.6226715738        1.4985833495
 H         -5.4913163625        1.8600823310        2.4354699998
 H         -4.0917379560        1.0443986090        1.7548351682
 C         -4.5580729650        2.9235691425        0.8027924817
 H         -4.6305831785        3.7432459287        1.5207944307
 H         -5.2456605349        3.1472798624       -0.0137070760
 C         -3.1232171546        2.9204779146        0.2717788956
 H         -2.8604730546        3.9464157156        0.0011578529
 H         -2.4396750481        2.6041330651        1.0636670979
 C         -2.8705020426        2.0419798215       -0.9597292248
 H         -3.5988731111        2.2790066739       -1.7377653508
 H         -1.8703346121        2.2769874061       -1.3349464595
 H         -6.1270046091       -0.1671370632        1.2450747667
 H         -6.8759725989        1.2664653377        0.5313654420
 H         -5.3753062121        1.2127117676       -1.3627700162
 H         -6.0048507229       -0.4286202739       -1.1253392448
 O         -3.9554170760       -1.5150376075       -0.3287793076
 C         -2.7591754119       -2.1832084269       -0.1180244643
 O         -2.8836515696       -3.3994367908        0.1335178378
 H          2.3729323101       -1.3507145336       -0.0173760376
 C          1.8578419149       -1.1125720759        0.8970152354
 C          0.5381367472       -1.4889679373        1.0845325326
 C         -0.0717003350       -1.1967665082        2.3025155823
 C          0.6154408088       -0.5236888489        3.2932207379
 C          1.9220554918       -0.1150876538        3.0876054729
 C          2.5439261944       -0.4148935447        1.8823498218
 N          3.8693522756       -0.0281857823        1.6475343400
 S          4.4015970017        0.3287285255        0.1065438565
 O          4.6278924169       -0.8888269904       -0.6325648913
 O          5.5741532195        1.1508392233        0.3243792191
 C          3.1296136380        1.3009379440       -0.6786333863
 C          2.6649704064        2.4292558253       -0.0346588263
 C          1.7034335482        3.2065324198       -0.6572340755
 C          1.2289747481        2.8476660522       -1.9082180140
 C          1.7069104383        1.7135320012       -2.5427686757
 C          2.6656106896        0.9300991399       -1.9229975496
 H          3.0583721678        0.0343755222       -2.3788043600
 H          1.3275081423        1.4304645631       -3.5121692233
 H          0.4764091849        3.4521260570       -2.3902673522
 H          1.3206879425        4.0851331846       -0.1629292039
 H          3.0552952359        2.6873335186        0.9367107972
 H          4.2729113990        0.5814908037        2.3425729174
 H          2.4557312731        0.4261771342        3.8537626212
 H          0.1273773249       -0.3025011151        4.2306789865
 H         -1.0990422266       -1.4994762490        2.4565298523
 C         -0.2634812876       -2.1919941915        0.0170128269
 H         -0.5260158095       -3.1965593903        0.3793494659
 C          0.4760725968       -2.3216869657       -1.2983111840
 C          1.4401452573       -3.4475552360       -1.5165049503
 C          0.1231711909       -3.4382482355       -2.2320029634
 H          0.1123858238       -3.2400938413       -3.2932937049
 H         -0.6405212663       -4.1313522359       -1.9098165456
 H          1.5740632367       -4.1533887273       -0.7105071204
 H          2.3407593989       -3.2556711052       -2.0809638570
 H          0.7090035582       -1.3576350225       -1.7371221970
 O         -0.4879577990        0.6024644381       -0.5688059407
