  62
        -98.93920323
 C         -2.1168958183       -1.0349919551        0.1948112341
 C         -1.9191815474        0.1313779766       -0.5866139988
 C         -2.5358979201        1.3601803364       -0.0630233467
 C         -3.2017993968        1.3416195252        1.1042547049
 C         -3.8623570936        2.5173329401        1.7721194267
 C         -5.2716160591        2.8225960377        1.2457980160
 C         -5.3256925663        3.4450381369       -0.1499947891
 H         -6.3448586551        3.8066959147       -0.2998460373
 H         -4.6635911064        4.3106044526       -0.1862860978
 C         -4.9738053713        2.4785914830       -1.2896050372
 H         -5.0405222511        1.4495772107       -0.9291148736
 H         -5.7036503277        2.5839724744       -2.0954132683
 C         -3.5898701859        2.6967254548       -1.9020034191
 H         -3.5512534137        3.6761764914       -2.3841339157
 H         -3.4297214348        1.9361902235       -2.6705736504
 C         -2.4345925227        2.6015054078       -0.8969921638
 H         -2.4138069529        3.4860025569       -0.2602091532
 H         -1.4929275231        2.5509420373       -1.4505096547
 H         -5.7373527773        3.5177482816        1.9480448653
 H         -5.8545949857        1.8988944538        1.2555745172
 H         -3.9368359372        2.2688846907        2.8329938027
 H         -3.2316593840        3.4004077103        1.6654466829
 O         -3.3423455955        0.2086832352        1.8430714602
 C         -2.8196438705       -0.9944309199        1.4025632663
 O         -3.0486574332       -1.9559907245        2.1653962280
 O         -1.2737767836        0.1748354326       -1.6674726670
 C         -1.5704720866       -2.4036982841       -0.1725000669
 C         -0.1711655318       -2.6153994429        0.3589793426
 C          0.1932931828       -3.8437466792        0.8986833097
 C          1.4801997687       -4.0565341060        1.3579168729
 C          2.4250001207       -3.0498250088        1.2889434525
 C          2.0675832262       -1.8119335122        0.7633035226
 C          0.7775063909       -1.6051223849        0.2962559505
 H          0.5205619404       -0.6456710823       -0.1249519520
 N          3.0000180319       -0.7643497573        0.7433597368
 S          2.8459881239        0.5161275417       -0.3413565603
 O          1.8329750019        1.4176563305        0.1459018011
 O          2.6982387886        0.0180116706       -1.6899130679
 C          4.4563514790        1.2589416333       -0.1458884021
 C          5.4623926795        0.9379832968       -1.0376537461
 C          6.7203050482        1.4920817608       -0.8590118860
 C          6.9508535143        2.3516565710        0.2044656676
 C          5.9311810097        2.6661671074        1.0906138454
 C          4.6711657926        2.1157840047        0.9169502285
 H          3.8457602647        2.3370819727        1.5735095780
 H          6.1127899105        3.3373115504        1.9144974069
 H          7.9303267473        2.7816581998        0.3419761829
 H          7.5135893805        1.2519602274       -1.5484088992
 H          5.2333102720        0.2729139452       -1.8547308569
 H          3.9566165795       -1.0785956172        0.8282184259
 H          3.4292260056       -3.2121848893        1.6490976622
 H          1.7510766934       -5.0152308314        1.7731290968
 H         -0.5434553328       -4.6301227384        0.9657363850
 H         -2.2262210286       -3.1308613688        0.3281524105
 C         -1.5901127730       -2.6917286309       -1.6620830901
 C         -1.7366781593       -4.1044195624       -2.1379419919
 C         -2.8659544740       -3.1341522576       -2.3099639028
 H         -3.0929727972       -2.7670136122       -3.2994116440
 H         -3.7336591399       -3.2438570943       -1.6753127469
 H         -1.1832155466       -4.4098130870       -3.0125554424
 H         -1.8472708761       -4.8782922389       -1.3938245065
 H         -0.9460819208       -2.0320076338       -2.2297088553
