  62
        -98.94415955
 C         -2.6450826761       -1.2963546213        0.1635090008
 C         -2.6213229980       -0.2807157408       -0.8223397231
 C         -3.7511791586        0.6603211757       -0.7968330647
 C         -4.7272291923        0.4975496887        0.1148965568
 C         -5.9060858869        1.4106185014        0.2842836696
 C         -5.6061171217        2.5196922473        1.3023810546
 C         -4.2793112539        3.2390431026        1.0588540140
 H         -4.1878098620        4.0190931527        1.8177364810
 H         -3.4564570787        2.5381570304        1.2188071855
 C         -4.1442140453        3.8656063618       -0.3359933070
 H         -5.1285872867        3.9645171008       -0.7950614212
 H         -3.7331487054        4.8717109819       -0.2297300627
 C         -3.2170298590        3.1057994269       -1.2868285874
 H         -3.0235790156        3.7429586746       -2.1542051512
 H         -2.2561877213        2.9234871679       -0.7974637895
 C         -3.7515618426        1.7675329145       -1.8128340474
 H         -3.0857015736        1.4380164058       -2.6160057166
 H         -4.7503731681        1.9089941393       -2.2308317226
 H         -6.4234953525        3.2424798414        1.2765259484
 H         -5.5760767640        2.0753389374        2.2998101018
 H         -6.7499908343        0.8189917706        0.6429554969
 H         -6.1633798278        1.8464340955       -0.6790050670
 O         -4.7253167994       -0.5038712994        1.0310465303
 C         -3.6804674283       -1.4098630646        1.0925190089
 O         -3.7870916754       -2.2581357041        2.0006361314
 O         -1.7107675433       -0.1638184583       -1.6849525071
 C         -1.5123193752       -2.3053460801        0.2559035198
 C         -0.2305724137       -1.5650801780        0.5504728308
 C         -0.1102704277       -0.9096111161        1.7738663026
 C          1.0258258752       -0.1859567977        2.0780193736
 C          2.0661366111       -0.0949624664        1.1683587216
 C          1.9497656114       -0.7306529380       -0.0591607219
 C          0.8112890118       -1.4719880632       -0.3561683815
 H          0.7346687863       -1.9567324950       -1.3164281065
 N          2.9980213344       -0.6540734208       -0.9879811804
 S          3.8290020128        0.7853630428       -1.2008523102
 O          2.9979137320        1.9380092116       -0.9431871581
 O          4.4041986035        0.6887915918       -2.5249009550
 C          5.1380381724        0.6923337603        0.0046032440
 C          5.9344805494       -0.4360173707        0.0186361076
 C          6.9609469336       -0.5194057698        0.9456407681
 C          7.1750792069        0.5217856800        1.8365607130
 C          6.3700121545        1.6499756231        1.8069849296
 C          5.3410721851        1.7391212867        0.8822656962
 H          4.6871675333        2.5951391093        0.8262359334
 H          6.5379699223        2.4592289246        2.4994134008
 H          7.9739609155        0.4538342378        2.5579982509
 H          7.5892915575       -1.3950910389        0.9715364659
 H          5.7379670403       -1.2218386439       -0.6912683560
 H          2.7931798889       -1.0925795685       -1.8739282895
 H          2.9497690676        0.4782618900        1.3952177267
 H          1.1051242612        0.3152453887        3.0309066408
 H         -0.9287179663       -0.9716873434        2.4787164712
 H         -1.7443404323       -2.9412074794        1.1214499114
 C         -1.4613102343       -3.1726071011       -0.9837343387
 C         -0.7634236799       -4.4977215648       -0.9352169857
 C         -2.2587172154       -4.4402660378       -1.0151193431
 H         -2.7385481411       -4.7237345914       -1.9399239707
 H         -2.8308792143       -4.6894679456       -0.1333312836
 H         -0.2164076376       -4.8265276745       -1.8058550546
 H         -0.3173365389       -4.7910098549        0.0029140793
 H         -1.4088690808       -2.5980011938       -1.9011540981
