  62
        -98.94477117
 C          2.0569520341        1.3251373929       -0.0043095759
 C          2.6673421739        0.6914029793        1.1037544973
 C          3.8247007829       -0.1608024124        0.8014587074
 C          4.2280710909       -0.2922338078       -0.4757542303
 C          5.3551185151       -1.1723319507       -0.9314637663
 C          4.8498840867       -2.5743607443       -1.2998522917
 C          3.9501153187       -3.2054218747       -0.2371231369
 H          3.0247163415       -2.6285496802       -0.1663870251
 H          3.6783123633       -4.2025007154       -0.5907648325
 C          4.5898686298       -3.3124334523        1.1543913863
 H          4.3840178433       -4.3059398785        1.5585018021
 H          5.6728456174       -3.2146059708        1.0719971767
 C          4.0661047021       -2.2993144422        2.1740659676
 H          2.9735813244       -2.3321227682        2.1939603126
 H          4.4191465691       -2.6005352662        3.1639053842
 C          4.5022528099       -0.8448474681        1.9556895458
 H          4.2211901785       -0.2772062793        2.8476281407
 H          5.5876711943       -0.7992301020        1.8476746023
 H          4.2819592288       -2.5046698312       -2.2306134498
 H          5.7135203703       -3.2180248392       -1.4761531528
 H          5.8114513075       -0.7179070777       -1.8123832953
 H          6.1005878607       -1.2390148155       -0.1414497202
 O          3.6147771214        0.3291172000       -1.5147078256
 C          2.5072789759        1.1409594549       -1.3119082427
 O          2.0303870308        1.6279404513       -2.3533808101
 O          2.2579997596        0.8257133322        2.2892241532
 C          0.8478335062        2.2121348927        0.2321070894
 C         -0.3585947714        1.6389331587       -0.4707185348
 C         -1.2159970517        2.3916895787       -1.2615452573
 C         -2.2985519903        1.7954877664       -1.8864879976
 C         -2.5560643921        0.4466518841       -1.7301577987
 C         -1.7174699699       -0.3115490567       -0.9217176858
 C         -0.6365625562        0.2882522932       -0.2948690861
 H          0.0170257066       -0.3054663030        0.3324737503
 N         -1.9763470902       -1.6797044550       -0.7406903611
 S         -3.5576338359       -2.1680185480       -0.5005089110
 O         -3.4609542358       -3.3990918294        0.2521257557
 O         -4.2366662393       -2.2589839095       -1.7690251635
 C         -4.3031145991       -0.8861871010        0.4919172252
 C         -5.3968850600       -0.1931484741        0.0150282605
 C         -5.9441212332        0.8139864783        0.7939392254
 C         -5.3881414141        1.1114043533        2.0282293388
 C         -4.2909556836        0.4035945242        2.4952001787
 C         -3.7413615844       -0.6056904044        1.7218469154
 H         -2.8911598904       -1.1766194975        2.0599165295
 H         -3.8591759674        0.6354096676        3.4556586576
 H         -5.8113093391        1.8985696316        2.6319665623
 H         -6.7984838878        1.3643817888        0.4344789571
 H         -5.7953092232       -0.4553561574       -0.9515143164
 H         -1.3439478944       -2.1409965248       -0.1043732851
 H         -3.3812113526       -0.0346600079       -2.2293337700
 H         -2.9485999057        2.3900712569       -2.5097671417
 H         -1.0311428012        3.4439053766       -1.3997786107
 H          0.6630585058        2.1678233568        1.3159476857
 C          1.1537800048        3.6444860939       -0.1502516003
 C          0.4546421620        4.7761127166        0.5402075408
 C          1.9017371017        4.5070690072        0.8202729907
 H          2.6409733501        5.1936996926        0.4358630999
 H          2.1682042070        4.0683371086        1.7708923406
 H          0.2005728905        5.6532268058       -0.0354911414
 H         -0.2633773150        4.5270021361        1.3066025315
 H          1.3938780205        3.7522890627       -1.2018799274
