  62
        -98.93676427
 C          2.4166575101        1.1313060008        0.4333373182
 C          2.3730421904       -0.0154641195       -0.3923078414
 C          3.4043762107       -1.0420577391       -0.1474150611
 C          4.3249138908       -0.8409334685        0.8135869087
 C          5.4601148611       -1.7124965579        1.3098221989
 C          5.8958987714       -2.9485946480        0.5278069093
 C          6.5665447212       -2.6514256083       -0.8133512108
 H          7.5455479711       -2.2058520579       -0.6195180611
 H          6.7296804914       -3.5984387384       -1.3323497905
 C          5.8053918708       -1.7030923989       -1.7362487011
 H          5.7085144305       -0.7257767487       -1.2590911014
 H          6.4055977207       -1.5620908390       -2.6393172212
 C          4.4217116309       -2.1829944395       -2.1687675708
 H          4.0577291506       -1.4922329698       -2.9341981310
 H          4.5010200312       -3.1726812896       -2.6228749705
 C          3.3633578310       -2.2385211894       -1.0543649507
 H          2.3762509210       -2.2286131699       -1.5258952806
 H          3.4414981114       -3.1589006692       -0.4809528304
 H          5.0564982716       -3.6246995584        0.3952734197
 H          6.6262019216       -3.4703867676        1.1522367895
 H          6.3187578409       -1.0441789176        1.4306262086
 H          5.1711090513       -2.0252891977        2.3192941491
 O          4.3261928005        0.2878651218        1.5836401183
 C          3.3835844001        1.2861049015        1.4252676881
 O          3.5113704999        2.2448873418        2.2133460877
 H         -0.7796818003        1.7521832192       -1.3759625517
 C         -0.9588674401        1.4575386595       -0.3544038216
 C          0.0223721499        1.6486360201        0.6029798282
 C         -0.2373171798        1.2517236105        1.9129198384
 C         -1.4446960596        0.6711507902        2.2474184487
 C         -2.4156851096        0.4597344296        1.2826515989
 C         -2.1681101399        0.8533967192       -0.0247064813
 N         -3.1163385099        0.6109115985       -1.0228638311
 S         -4.7537651698        0.5720816581       -0.7248319710
 O         -5.3691855800        0.6926339375       -2.0282853710
 O         -5.1455014001        1.5574874683        0.2564333887
 C         -5.0443147993       -1.0670572118       -0.0909283704
 C         -5.8931228091       -1.2418925516        0.9844545998
 C         -6.1273854887       -2.5251502516        1.4533402002
 C         -5.5125758184       -3.6061976116        0.8408579006
 C         -4.6640788285       -3.4141169017       -0.2391896596
 C         -4.4271901490       -2.1339543818       -0.7138468401
 H         -3.7704418491       -1.9480181119       -1.5475295102
 H         -4.1847016583       -4.2563119417       -0.7119554493
 H         -5.6939322580       -4.6041388915        1.2077611909
 H         -6.7860196885       -2.6761228215        2.2935049803
 H         -6.3431547693       -0.3719405316        1.4357761495
 H         -2.8791858201        0.9528677383       -1.9406044313
 H         -3.3581099995        0.0039767094        1.5383375291
 H         -1.6329413594        0.3717846305        3.2674201388
 H          0.5282253002        1.4013743510        2.6625001483
 C          1.3781975997        2.2310774104        0.2852681279
 H          1.6170976996        2.9780246308        1.0548965176
 C          1.4717624894        2.8872978600       -1.0755399823
 C          0.8713873790        4.2435798497       -1.2882710127
 C          2.3606512290        4.0803463302       -1.2485713528
 H          2.9156250789        4.1803230101       -2.1693830229
 H          2.8930174590        4.4357699407       -0.3782728230
 H          0.4044387688        4.4607003092       -2.2371701528
 H          0.3895327789        4.7132700299       -0.4439623629
 H          1.4328502796        2.1768468097       -1.8926003621
 O          1.5132239704       -0.1889382501       -1.2947885212
