  62
        -98.93208346
 C         -2.0856669998       -1.0891752507        0.6479199204
 C         -2.1384473403       -0.3220351905       -0.5392297895
 C         -2.5198846308        1.0983695993       -0.3936293292
 C         -2.7298235808        1.5987120290        0.8358296409
 C         -3.1133934813        3.0017488988        1.2335764112
 C         -4.2298513417        3.6642364385        0.4110311314
 C         -3.7327509723        4.8072498588       -0.4748927385
 H         -4.5697270226        5.4772404485       -0.6836031782
 H         -2.9874157024        5.3787739291        0.0819576315
 C         -3.1408980923        4.3758855292       -1.8154660586
 H         -3.9441751523        4.0299857290       -2.4695861086
 H         -2.6996010927        5.2599460895       -2.2813880986
 C         -2.0760147419        3.2788435196       -1.7430361190
 H         -1.4068614518        3.4407234398       -0.8984010791
 H         -1.4646000421        3.3477302200       -2.6454703991
 C         -2.6558536513        1.8580246494       -1.6852938891
 H         -3.7118151814        1.8745309190       -1.9728535089
 H         -2.1505218912        1.2283813197       -2.4244694192
 H         -4.7404457315        2.9136153584       -0.1903998786
 H         -4.9616812317        4.0719941881        1.1101284916
 H         -3.4159726310        2.9268925486        2.2806688412
 H         -2.2148193315        3.6234694792        1.2131265611
 O         -2.5856446303        0.8403509390        1.9619885708
 C         -2.2592928098       -0.5009115509        1.9009046205
 O         -2.1572025594       -1.0541447310        3.0155957304
 H          0.6192427904       -1.3528899797        0.9396999099
 C          0.6432223205       -2.0170323495        0.0861544998
 C         -0.4909550193       -2.7519491399       -0.2386678101
 C         -0.4442353592       -3.5997002798       -1.3364926202
 C          0.7065661507       -3.6854440392       -2.1010635404
 C          1.8223119005       -2.9303328188       -1.7932136605
 C          1.7887660404       -2.0873401090       -0.6867175104
 N          2.9206642301       -1.3331367886       -0.3285861805
 S          2.7176403397        0.1381349712        0.4683751397
 O          2.4673083101       -0.1220465591        1.8653322098
 O          1.7488297093        0.9667437809       -0.2142744500
 C          4.3588059694        0.8094517819        0.2751333796
 C          4.5950756289        1.7847159521       -0.6746441504
 C          5.8853488487        2.2664329826       -0.8340496705
 C          6.9117840590        1.7644396329       -0.0484773608
 C          6.6590999695        0.7854536027        0.9013516291
 C          5.3714232898        0.3013882721        1.0673464393
 H          5.1238858002       -0.4513923081        1.7974383592
 H          7.4590615198        0.3987139229        1.5117610489
 H          7.9147927088        2.1398332433       -0.1757764709
 H          6.0839467482        3.0293299628       -1.5694275105
 H          3.7641363786        2.1469965518       -1.2586318002
 H          3.5916727100       -1.2546596883       -1.0807822106
 H          2.7117944404       -2.9861594184       -2.4021263707
 H          0.7282944608       -4.3390683191       -2.9599514205
 H         -1.3168858490       -4.1681061501       -1.6128562201
 C         -1.7063760192       -2.5607438005        0.6346451202
 H         -1.4062072689       -2.7811676106        1.6733817601
 C         -2.8523619989       -3.5050089109        0.3051118502
 C         -4.2701760590       -3.1301320615        0.6155998205
 C         -3.8191706392       -3.2414234312       -0.8082810896
 H         -4.1695202990       -4.0818742712       -1.3895197396
 H         -3.6855430297       -2.3377755610       -1.3808089795
 H         -4.9265186386       -3.8904025418        1.0116885506
 H         -4.4468466993       -2.1446901016        1.0225993607
 H         -2.5822318085       -4.5417237708        0.4816728601
 O         -1.8932544203       -0.7891827803       -1.6820545096
