  62
        -98.95045972
 C         -1.7625356765       -1.2830721032       -0.2416516531
 C         -2.8618372595       -0.6475855760        0.3794062804
 C         -3.2756155072        0.6351201925       -0.2025871536
 C         -2.6068358532        1.1236947032       -1.2632224115
 C         -2.9032932727        2.4328906797       -1.9349332143
 C         -2.0642147920        3.5714223381       -1.3400333694
 C         -2.1050939285        3.6403766275        0.1865588072
 H         -1.5885971242        2.7668691274        0.5925012123
 H         -1.5185872548        4.5125209437        0.4859965219
 C         -3.5148738489        3.7423219851        0.7853986604
 H         -3.5020090759        4.4971152088        1.5746804327
 H         -4.2169817309        4.0822048371        0.0227498749
 C         -4.0368795734        2.4501430105        1.4164790875
 H         -3.2821167301        2.0495170658        2.0986418942
 H         -4.9205900832        2.6954909519        2.0120600343
 C         -4.4383078250        1.3412300353        0.4357277911
 H         -4.9793295515        0.5765775817        1.0012188852
 H         -5.1099420409        1.7468197570       -0.3237817447
 H         -1.0225428699        3.4289878666       -1.6376537574
 H         -2.4163539001        4.5158335840       -1.7605145050
 H         -2.6643134724        2.3353020527       -2.9955807083
 H         -3.9634050862        2.6566165771       -1.8301644422
 O         -1.5576251739        0.4834054826       -1.8359752191
 C         -1.0894069941       -0.7134928275       -1.3213944326
 O         -0.0924279166       -1.1730929397       -1.9126739512
 O         -3.4693480125       -1.1325635794        1.3739276359
 C         -1.2459559921       -2.5944357930        0.3217908683
 C          0.2082150781       -2.4542152229        0.6992145815
 C          1.1602579500       -3.4388841562        0.4656865185
 C          2.4852443148       -3.2309041879        0.8095797195
 C          2.8934054334       -2.0328408241        1.3668660268
 C          1.9459592142       -1.0467683494        1.6145574292
 C          0.6147031650       -1.2760889908        1.3122970122
 H         -0.1079647937       -0.4994582059        1.5161110975
 N          2.3028401930        0.2114853503        2.1471131117
 S          2.0856687515        1.5208737827        1.1176690726
 O          2.5734335910        2.6666753976        1.8560142865
 O          0.7169299703        1.5791794652        0.6792355428
 C          3.1934717923        1.1794411466       -0.2383861218
 C          4.4600519570        1.7321227544       -0.2027311295
 C          5.3630966131        1.4099587876       -1.2021198435
 C          4.9895192428        0.5334363715       -2.2101976554
 C          3.7168656418       -0.0152437824       -2.2284502198
 C          2.8045741405        0.3058499323       -1.2338841260
 H          1.8076316506       -0.1081516667       -1.2367146913
 H          3.4174028469       -0.6970320062       -3.0082711040
 H          5.6925660448        0.2768306405       -2.9869423454
 H          6.3523887316        1.8383142750       -1.1902865796
 H          4.7028482961        2.4097000681        0.6000809589
 H          3.2431811253        0.2414874544        2.5185426536
 H          3.9316624155       -1.8579836094        1.6059423091
 H          3.2131538458       -4.0049427882        0.6205483254
 H          0.8656125159       -4.3680968368        0.0059969744
 H         -1.8289734937       -2.7713929178        1.2384020782
 C         -1.5071683204       -3.7276729642       -0.6492997123
 C         -1.7663882299       -5.1155242188       -0.1457342355
 C         -2.8863846420       -4.3080272578       -0.7273230989
 H         -3.2762507876       -4.5833859740       -1.6956981837
 H         -3.6305227348       -3.9030717427       -0.0569935799
 H         -1.3898223758       -5.9503220348       -0.7174268220
 H         -1.7573461889       -5.2701372608        0.9226082186
 H         -0.9599944181       -3.6109603288       -1.5781928151
