  62
        -98.94301789
 C         -2.3423436262       -0.8999220694        0.4454812266
 C         -2.5260245281        0.1414152377       -0.4963508352
 C         -3.5136757648        1.1668000507       -0.1321687919
 C         -4.1516299967        1.1027572998        1.0497688731
 C         -5.1573264995        2.0917071520        1.5731725720
 C         -6.5878295623        1.8548692976        1.0697846744
 C         -6.8292819632        2.2136590320       -0.3969536893
 H         -7.9095887266        2.2070850954       -0.5548671422
 H         -6.4794439255        3.2293909392       -0.5840494848
 C         -6.1785941055        1.2500210511       -1.3991234248
 H         -5.9146240042        0.3194617432       -0.8913466821
 H         -6.8991968306        0.9948134541       -2.1794037415
 C         -4.9350794189        1.8033862744       -2.0951297503
 H         -5.2121110331        2.6587517890       -2.7155006576
 H         -4.5358479997        1.0265072031       -2.7522911207
 C         -3.8161687387        2.2360620947       -1.1387540696
 H         -4.0883343936        3.1645194508       -0.6373604023
 H         -2.9105576411        2.4075560718       -1.7258582119
 H         -7.2541998345        2.4641292517        1.6846979906
 H         -6.8479426727        0.8069643090        1.2361650847
 H         -5.1541040725        1.9901039896        2.6605411324
 H         -4.8433358666        3.1041939808        1.3178321243
 O         -3.9278440933        0.1028202284        1.9420965555
 C         -3.0456781850       -0.9231134514        1.6555779632
 O         -2.9716453596       -1.7919803898        2.5471803844
 O         -1.9088032336        0.2405118367       -1.5916530541
 C         -1.3912501788       -2.0680900180        0.2311499874
 C          0.0387356326       -1.6784533866        0.5232428090
 C          0.7379308538       -2.2729372432        1.5671414506
 C          2.0518538474       -1.9226759155        1.8238273392
 C          2.6931922384       -0.9722135829        1.0497554332
 C          2.0031995541       -0.3717241895        0.0048014714
 C          0.6879231510       -0.7307209107       -0.2548733332
 H          0.1520211017       -0.2547305947       -1.0628442893
 N          2.6318458215        0.6154865181       -0.7722959810
 S          4.1663434872        0.3136835939       -1.3770714397
 O          4.2936343006        1.1684759213       -2.5370796125
 O          4.3849174630       -1.0980199569       -1.5926296923
 C          5.2530745471        0.9106435203       -0.0986219536
 C          6.2284150254        0.0820388236        0.4205326247
 C          7.0702388633        0.5734275674        1.4063357757
 C          6.9234065356        1.8779861430        1.8519824239
 C          5.9404309580        2.6983272891        1.3183765327
 C          5.0963793262        2.2134581818        0.3322459659
 H          4.3225338283        2.8186826477       -0.1099243756
 H          5.8289213577        3.7122448259        1.6676302507
 H          7.5785130772        2.2579822919        2.6199427236
 H          7.8353160560       -0.0623162789        1.8221596460
 H          6.3022595184       -0.9268683961        0.0467856325
 H          2.0312985778        1.0089424209       -1.4826068777
 H          3.7158770132       -0.6946918181        1.2464319007
 H          2.5823002446       -2.3925804262        2.6379806890
 H          0.2397260344       -3.0059660537        2.1850266755
 H         -1.6864843230       -2.8255202596        0.9694529865
 C         -1.5116461501       -2.6799168386       -1.1518699978
 C         -1.0565585610       -4.0910100753       -1.3635056766
 C         -2.5187780068       -3.7624407128       -1.3899859016
 H         -3.0378099701       -3.7841397155       -2.3365433908
 H         -3.1263170952       -4.0726450484       -0.5519931105
 H         -0.5666870878       -4.3401239900       -2.2924355033
 H         -0.6730857593       -4.6263456389       -0.5080521436
 H         -1.3461539938       -1.9723289003       -1.9535271394
