  62
        -98.93961131
 C         -2.4773924648       -1.0286431990       -0.2833812295
 C         -3.7327304048       -1.1222277006        0.3652805206
 C         -4.8208745725       -0.3282527810       -0.2192828420
 C         -4.5751417675        0.4203153994       -1.3102217410
 C         -5.5745656486        1.3223855884       -1.9732974107
 C         -5.5066705586        2.7436234751       -1.3970850170
 C         -5.5318736042        2.7924360315        0.1306563278
 H         -4.6180643687        2.3347801275        0.5171757447
 H         -5.5108852283        3.8446217491        0.4228624107
 C         -6.7501480379        2.1091826328        0.7675785435
 H         -7.1438020770        2.7574647942        1.5532954147
 H         -7.5379268289        1.9875238011        0.0232989699
 C         -6.4523919530        0.7556133579        1.4153431248
 H         -5.6012024759        0.8539091233        2.0939981185
 H         -7.3187370434        0.4689769907        2.0174929739
 C         -6.1660503766       -0.3993226723        0.4471790485
 H         -6.9625977957       -0.4617630212       -0.2968860691
 H         -6.1642049810       -1.3263929198        1.0279363391
 H         -4.5805292216        3.2117856743       -1.7384763224
 H         -6.3451274613        3.3180376675       -1.7951287751
 H         -5.3479140694        1.3614196877       -3.0400065383
 H         -6.5731159406        0.9114243394       -1.8383774114
 O         -3.3598876287        0.4774088688       -1.9111059541
 C         -2.2768328747       -0.2296055001       -1.4090807032
 O         -1.2216796376       -0.0693317212       -2.0506991992
 O         -3.9325681694       -1.8350221992        1.3856390659
 C         -1.3027898887       -1.8001016295        0.2942058665
 C         -0.2825016004       -0.8117682537        0.8031163121
 C         -0.6210832767       -0.0119024930        1.8920440754
 C          0.2636476534        0.9300724004        2.3792663982
 C          1.5033896361        1.1027156183        1.7876837122
 C          1.8515877376        0.3108615527        0.7025160597
 C          0.9648178048       -0.6474849177        0.2240224054
 H          1.2465521708       -1.2520037335       -0.6238996570
 N          3.0981749402        0.4954687435        0.0709619256
 S          4.4764360649        0.5181744544        1.0459834149
 O          4.5450506323       -0.6874268025        1.8436924038
 O          4.5040135980        1.7583500266        1.7790649834
 C          5.7585763430        0.5206264930       -0.1906719415
 C          6.4503564517       -0.6436114789       -0.4639642955
 C          7.4321217198       -0.6252745253       -1.4424816735
 C          7.7007088512        0.5492539425       -2.1287579629
 C          6.9964871683        1.7099124828       -1.8435981866
 C          6.0151335824        1.6989959826       -0.8655919037
 H          5.4486717307        2.5776218810       -0.6049165024
 H          7.2092365948        2.6211647404       -2.3789758522
 H          8.4654821432        0.5610648417       -2.8892572416
 H          7.9829292724       -1.5249780896       -1.6650258626
 H          6.2129989987       -1.5316314169        0.0996925119
 H          3.2266999764       -0.1609847085       -0.6880070015
 H          2.2031894600        1.8333280520        2.1589193299
 H         -0.0123941191        1.5408436318        3.2260545994
 H         -1.5929134129       -0.1401585905        2.3494888789
 H         -1.7092038455       -2.3427052986        1.1596204646
 C         -0.7572699961       -2.8047477911       -0.6972392818
 C          0.0933649971       -3.9390984598       -0.2111071953
 C         -1.3008695182       -4.2007580395       -0.6938884219
 H         -1.4337740647       -4.7035711567       -1.6400121885
 H         -2.0603481501       -4.4381144915        0.0365223082
 H          0.9184314675       -4.2669858392       -0.8251982387
 H          0.2845010130       -3.9991032392        0.8498367429
 H         -0.5232995091       -2.3656378655       -1.6600440680
