  62
        -98.93080689
 C         -2.3311768700       -0.9122623311        0.8140903302
 C         -3.3837368001       -0.9521277503       -0.1320447098
 C         -4.4566740400        0.0411306797        0.0536238811
 C         -4.3731843799        0.9262455888        1.0624273918
 C         -5.3411781898        2.0439944387        1.3281156128
 C         -5.0944255798        3.2030404495        0.3413189137
 C         -6.2462648498        3.4589465203       -0.6308155760
 H         -7.0532430198        3.9675737199       -0.0991833256
 H         -5.8784621098        4.1401380709       -1.4011273155
 C         -6.8387168699        2.2175996209       -1.3046977370
 H         -7.5232611199        1.7180935204       -0.6174815474
 H         -7.4424161700        2.5690579016       -2.1441744967
 C         -5.8264489700        1.1880963313       -1.8234231579
 H         -4.8637256700        1.6596384614       -2.0223674576
 H         -6.1932639001        0.8023314721       -2.7768547482
 C         -5.6177581701       -0.0266562495       -0.8999704589
 H         -6.5368619400       -0.2222537399       -0.3406526590
 H         -5.4175258701       -0.9046858590       -1.5210241296
 H         -4.9075585897        4.1221826390        0.8986979244
 H         -4.1834579198        2.9863863299       -0.2207738465
 H         -6.3607875798        1.6757472388        1.2386168925
 H         -5.1786090398        2.3769626878        2.3533919930
 O         -3.3301884199        0.9533061981        1.9325829218
 C         -2.2932811599        0.0443622581        1.8322191710
 O         -1.4067521899        0.1826716473        2.6996704310
 O         -3.4507521302       -1.7718209495       -1.0849859005
 C         -1.1541204601       -1.8759083011        0.7767819893
 C         -0.1664450201       -1.4231000403       -0.2725390403
 C         -0.3442559902       -1.6938288092       -1.6244744406
 C          0.5772251998       -1.2437559985       -2.5532607202
 C          1.6878079499       -0.5190495789       -2.1588542297
 C          1.8715774599       -0.2383124300       -0.8113512895
 C          0.9490762600       -0.6959924507        0.1204846602
 H          1.0842627400       -0.4668485816        1.1696971504
 N          2.9858304200        0.5179880996       -0.4024646589
 S          4.4748998199        0.1165951701       -1.0948388893
 O          4.5784724399        0.7851441811       -2.3679299688
 O          4.6369013599       -1.3196804199       -1.1224279405
 C          5.6112952500        0.8485894891        0.0656775212
 C          5.8815020601        2.2007052691       -0.0276981177
 C          6.7511494402        2.7735929483        0.8865530427
 C          7.3319159402        1.9901876175        1.8729815121
 C          7.0512317801        0.6345172274        1.9534485510
 C          6.1814455301        0.0552134882        1.0430403005
 H          5.9418040100       -0.9959675318        1.0617196397
 H          7.5063144601        0.0276232668        2.7195842305
 H          8.0100135703        2.4382416169        2.5820270224
 H          6.9741634303        3.8265992684        0.8263109636
 H          5.4150076701        2.7677296998       -0.8162475372
 H          3.0536998601        0.5786928988        0.6043969711
 H          2.4159659998       -0.1710534483       -2.8740690594
 H          0.4294877097       -1.4600631776       -3.6008860004
 H         -1.2197784302       -2.2357966689       -1.9443165010
 H         -0.6648049800       -1.7768198420        1.7551124594
 C         -1.5709853702       -3.3215359310        0.5990990882
 C         -0.5861274702       -4.4013437913        0.9282795672
 C         -1.7754880102       -4.1763733619        1.8118871975
 H         -2.5730572902       -4.9039131719        1.7999767069
 H         -1.6146743501       -3.7215294827        2.7787347378
 H         -0.5639787703       -5.2845562108        0.3086520665
 H          0.3836675298       -4.0978564616        1.2936374274
 H         -2.2373894302       -3.4837986502       -0.2368494319
