  62
        -98.94373875
 C         -1.9442354006       -1.2474671790        0.1610463294
 C         -2.4884284204       -0.4004906888        1.1596398394
 C         -3.8543076203        0.0781791515        0.9279086994
 C         -4.5070368503       -0.2875450784       -0.1905195806
 C         -5.9170648402        0.0886088419       -0.5568861307
 C         -6.0438657599        1.4597182219       -1.2345048907
 C         -5.8419172397        2.6616558619       -0.3110904107
 H         -6.4886171697        2.5613229320        0.5611851393
 H         -6.1704321695        3.5465219520       -0.8598371807
 C         -4.3907786596        2.8735380616        0.1427255893
 H         -4.1266395094        3.9284317515        0.0382085393
 H         -3.7184764197        2.3111846114       -0.5098435007
 C         -4.1162231998        2.4797861515        1.5942299893
 H         -4.6844074696        3.1296145217        2.2636020793
 H         -3.0532864897        2.6367988113        1.7953719694
 C         -4.4525218401        1.0204625816        1.9285164793
 H         -5.5328317701        0.8863982719        1.9791704193
 H         -4.0239516402        0.7853251015        2.9058615994
 H         -7.0478006999        1.5208874821       -1.6608629307
 H         -5.3289985699        1.5098178017       -2.0591244307
 H         -6.5460377303        0.0620886721        0.3334345793
 H         -6.2697307504       -0.6736144280       -1.2550235407
 O         -3.9441972405       -1.0837279085       -1.1353801206
 C         -2.6460403706       -1.5604132188       -1.0037639006
 O         -2.2617004307       -2.2420819789       -1.9716393306
 O         -1.8613721803       -0.0670081190        2.2014909094
 C         -0.5267689707       -1.7549807193        0.3692927295
 C          0.4095591395       -0.9396186695       -0.4878006505
 C          0.8065326395       -1.3313795696       -1.7601984105
 C          1.6569379097       -0.5316442598       -2.5041647505
 C          2.1388022699        0.6600634801       -1.9929125705
 C          1.7472573800        1.0586865902       -0.7214607805
 C          0.8865146498        0.2629276904        0.0185945395
 H          0.5707444698        0.5795820405        1.0043327195
 N          2.2841648402        2.2445149601       -0.1756650905
 S          3.9603430302        2.2445288697       -0.0542457705
 O          4.2734265104        3.1239771597        1.0498858695
 O          4.5293743103        2.6034648196       -1.3285646505
 C          4.3635333398        0.5514083596        0.3397871196
 C          4.9187299997       -0.2653843805       -0.6238297604
 C          5.1273748994       -1.6029560806       -0.3283825204
 C          4.7734117792       -2.0992452805        0.9163357796
 C          4.2229905994       -1.2640962903        1.8765787696
 C          4.0113979497        0.0737826197        1.5866484996
 H          3.5869273498        0.7515776798        2.3102277595
 H          3.9506623893       -1.6515693102        2.8454909896
 H          4.9268056590       -3.1430771105        1.1408863996
 H          5.5568570293       -2.2546561807       -1.0717513804
 H          5.1756111798        0.1596377194       -1.5800024504
 H          1.8741980303        2.4889678402        0.7149402795
 H          2.8157177901        1.2859646699       -2.5519350805
 H          1.9528071496       -0.8435790499       -3.4941148605
 H          0.4296049693       -2.2527210895       -2.1723289505
 H         -0.2966498306       -1.5259864793        1.4188659295
 C         -0.3798625910       -3.2468216493        0.1594250595
 C          0.8872688888       -3.9101718996        0.6082532995
 C         -0.3913267012       -4.1566711893        1.3494756595
 H         -0.8666641214       -5.1213607392        1.2536453495
 H         -0.5138079311       -3.7064446593        2.3237789195
 H          1.2934984287       -4.7069247097        0.0049072496
 H          1.6341650590       -3.2848146298        1.0741998495
 H         -0.8508382511       -3.6077818392       -0.7455132905
