  62
        -98.93606118
 C         -2.0317441517       -0.0561754649        0.9868924428
 C         -3.2337384437       -0.7802238692        0.7873681802
 C         -4.4491656409        0.0349638951        0.6150090173
 C         -4.3636810746        1.3762267667        0.6465094346
 C         -5.5109276140        2.3172665898        0.4214744061
 C         -5.6400344773        2.6925883353       -1.0615056433
 C         -5.6168330570        1.4920615260       -2.0076474923
 H         -4.6309868981        1.0232421444       -1.9645162010
 H         -5.7456168414        1.8753298227       -3.0222414834
 C         -6.6930236079        0.4358697445       -1.7200937519
 H         -7.1515204074        0.1367050585       -2.6650426816
 H         -7.4801683535        0.8676555375       -1.1009032524
 C         -6.1690931093       -0.8389531405       -1.0564505312
 H         -5.3195978465       -1.2255531767       -1.6251161975
 H         -6.9595408524       -1.5932137002       -1.0971444746
 C         -5.7438404614       -0.7009898014        0.4107813219
 H         -5.5804269079       -1.7086575011        0.8042942136
 H         -6.5470048628       -0.2339952293        0.9843783782
 H         -4.8095782002        3.3515547082       -1.3251872884
 H         -6.5704259204        3.2470374054       -1.1971744550
 H         -6.4302481731        1.8509677524        0.7704842022
 H         -5.3306520307        3.2235386591        1.0020950841
 O         -3.1931475525        2.0358966058        0.8424765018
 C         -2.0085651577        1.3410433674        1.0093463424
 O         -1.0088012053        2.0690102041        1.1773753484
 H          1.8888656522       -0.2468283310        0.5910713255
 C          1.3642681925       -0.6646220586       -0.2529120839
 C          0.0159784900       -0.9665663269       -0.1292293944
 C         -0.6555884547       -1.5037281473       -1.2217068469
 C          0.0182170558       -1.7382442022       -2.4065311417
 C          1.3692547696       -1.4624955649       -2.5157697812
 C          2.0526171224       -0.9250827878       -1.4292920210
 N          3.4174307337       -0.6284339384       -1.5377985011
 S          4.5481995738       -0.8263539986       -0.3156676489
 O          5.6397817771       -1.5715016253       -0.9056945705
 O          3.9462178886       -1.3930186113        0.8645328441
 C          5.1021339734        0.8389915034       -0.0010134186
 C          4.2503891960        1.7377754936        0.6100688653
 C          4.6912171237        3.0315635937        0.8395557505
 C          5.9704452073        3.4056145332        0.4567725411
 C          6.8144877266        2.4931950784       -0.1571619182
 C          6.3778355262        1.1989711927       -0.3903629739
 H          7.0008089885        0.4564113673       -0.8615266823
 H          7.8089155270        2.7852758960       -0.4540097612
 H          6.3086481777        4.4134477716        0.6390026290
 H          4.0307780792        3.7396782802        1.3145876571
 H          3.2591184606        1.4272602343        0.8993860602
 H          3.8224093939       -0.8749498876       -2.4288099805
 H          1.8945939345       -1.6595721552       -3.4381278358
 H         -0.5113353597       -2.1540443189       -3.2507151135
 H         -1.7025580841       -1.7491194375       -1.1283415446
 C         -0.6809991133       -0.7218072800        1.1848810399
 H         -0.0768289484        0.0124483409        1.7422569825
 C         -0.7497064329       -1.9804060665        2.0404242538
 C         -0.5362379717       -3.3589387225        1.5001409243
 C          0.5056905601       -2.7317189512        2.3741307738
 H          0.6291753112       -3.1043355808        3.3801294342
 H          1.4283148559       -2.4105999812        1.9113574121
 H         -0.3219349193       -3.4668321860        0.4484169287
 H         -1.1465430846       -4.1534885101        1.9014471587
 H         -1.4822762047       -1.8865090331        2.8358596922
 O         -3.3129716511       -2.0342192457        0.7492188093
