  62
        -98.94152552
 C         -1.7828090746       -1.4039554650       -0.0591888332
 C         -2.9109425176       -0.7445093434        0.4834478139
 C         -3.3083232865        0.5238264867       -0.1500493882
 C         -2.5794598302        0.9937331338       -1.1771682221
 C         -2.7420553080        2.3063802407       -1.8915253649
 C         -1.8370880580        3.3716730750       -1.2470124163
 C         -2.4796218517        4.1438304245       -0.0962382760
 H         -1.7057652152        4.7842587721        0.3336554062
 H         -3.2677696135        4.7914645198       -0.4876406766
 C         -3.0629224571        3.2702266279        1.0172639287
 H         -3.1322342172        3.8793351563        1.9211210792
 H         -2.3685010436        2.4548833433        1.2330824643
 C         -4.4554815914        2.7137178498        0.6839882613
 H         -5.1351812815        2.9254137323        1.5121399624
 H         -4.8499460976        3.2431392271       -0.1833668901
 C         -4.5180475553        1.1990532674        0.4366805161
 H         -4.6868122331        0.6836454642        1.3876014240
 H         -5.3831957877        0.9778303426       -0.1977222017
 H         -1.5349147593        4.0898510997       -2.0124178158
 H         -0.9324546479        2.8746851490       -0.8838886976
 H         -2.4157238427        2.1466847384       -2.9212628842
 H         -3.7815294996        2.6215123151       -1.8962642507
 O         -1.5089170749        0.3245874619       -1.6785653891
 C         -1.0570091509       -0.8544573941       -1.1162493571
 O         -0.0274601614       -1.3070711161       -1.6531286842
 H         -0.0984985782       -0.5368738558        1.7324062317
 C          0.6268599511       -1.2967490277        1.4779895569
 C          0.2038134905       -2.4916961709        0.9073404606
 C          1.1603181252       -3.4484494947        0.5956086426
 C          2.5028025896       -3.2012770346        0.8308274966
 C          2.9217066556       -1.9895325302        1.3481468446
 C          1.9704810973       -1.0262064017        1.6638758888
 N          2.3314319334        0.2520865621        2.1457149417
 S          2.0504160925        1.5238113970        1.0838148090
 O          2.4930570743        2.7102397488        1.7859639131
 O          0.6766705600        1.5129222727        0.6557260923
 C          3.1639326397        1.1950434740       -0.2706932574
 C          2.8124609870        0.2696719041       -1.2326891185
 C          3.7335379430       -0.0390138397       -2.2232959351
 C          4.9772454223        0.5726274876       -2.2337604393
 C          5.3130010211        1.5005391472       -1.2588468770
 C          4.4014231815        1.8111865396       -0.2635714754
 H          4.6152460678        2.5263163841        0.5145461189
 H          6.2797266467        1.9777159735       -1.2692746545
 H          5.6876424662        0.3248850128       -3.0067272533
 H          3.4650385653       -0.7614700707       -2.9773346369
 H          1.8374917115       -0.1934652906       -1.2115310087
 H          3.2887802256        0.3072681936        2.4678322443
 H          3.9709867833       -1.7839759959        1.4988823912
 H          3.2346225546       -3.9546843249        0.5825624511
 H          0.8597005975       -4.3810203158        0.1471470270
 C         -1.2749377141       -2.6476753510        0.6502685517
 H         -1.7913657231       -2.6322817881        1.6255525919
 C         -1.6469859911       -3.9640561459       -0.0143405562
 C         -2.8164598123       -4.0551911795       -0.9472775844
 C         -1.4235949413       -4.2122394140       -1.4750202357
 H         -1.1031582059       -5.1964588077       -1.7840540932
 H         -0.9991004684       -3.4087361597       -2.0554373535
 H         -3.3487916153       -3.1421218450       -1.1722632507
 H         -3.4503876813       -4.9274451198       -0.8904734604
 H         -1.5023957051       -4.8097275882        0.6510670172
 O         -3.5494404863       -1.1892859003        1.4773776975
