  62
        -98.93508130
 C         -1.9377617308       -0.9835542996        0.3029152202
 C         -2.4218809109        0.0110584104        1.1852341201
 C         -2.6610204209        1.3498542104        0.6206724301
 C         -2.3637038509        1.5799757803       -0.6713709399
 C         -2.4312196810        2.8455941303       -1.5012073100
 C         -3.1860912811        4.0722538803       -0.9954224501
 C         -4.7028411711        3.9002261102       -0.9126389501
 H         -5.1221591111        4.7900792802       -0.4385274001
 H         -5.1005153211        3.8446989801       -1.9290030601
 C         -5.1858360110        2.6620529502       -0.1617377000
 H         -6.2785980010        2.6553116701       -0.1955744300
 H         -4.8419287310        1.7637431502       -0.6786624900
 C         -4.7662694110        2.5820889703        1.3046231000
 H         -5.3001099610        1.7407643703        1.7547388100
 H         -5.0742315611        3.4907445103        1.8252493599
 C         -3.2640634410        2.3614184904        1.5526654200
 H         -3.1425358810        1.9557142005        2.5614137800
 H         -2.7123572911        3.2976615404        1.5110282100
 H         -2.9831597511        4.8766749702       -1.7076626401
 H         -2.7830719211        4.3909120403       -0.0385772701
 H         -1.3874041910        3.1272684003       -1.6829980000
 H         -2.8413264510        2.5457686202       -2.4711937500
 O         -1.8602928709        0.5997035503       -1.4773723399
 C         -1.6275060608       -0.6889295896       -1.0242672898
 O         -1.1639722308       -1.4516490697       -1.8939094198
 O         -2.6365843708       -0.2074946995        2.4087457902
 C         -1.6325292907       -2.3550981195        0.8782915603
 C         -0.2541062907       -2.7853716795        0.4407342403
 C          0.0348705794       -4.0213330895       -0.1206796896
 C          1.3247863394       -4.3192523694       -0.5259852296
 C          2.3399901994       -3.3900829394       -0.4013333097
 C          2.0621135693       -2.1512126793        0.1659952603
 C          0.7813819393       -1.8732255894        0.6090487602
 H          0.5722650692       -0.9079490594        1.0466839502
 N          3.0756717092       -1.1785505493        0.3166032402
 S          2.7585502591        0.3802941307       -0.2583121699
 O          1.7410640791        1.0007557707        0.5513042601
 O          2.5183607591        0.3451128506       -1.6856026199
 C          4.3365655591        1.1448719208        0.0697831801
 C          5.2911146091        1.1936462308       -0.9284000099
 C          6.5255939290        1.7588217009       -0.6491901099
 C          6.7843513090        2.2603041510        0.6174958100
 C          5.8161002390        2.2049028010        1.6090260400
 C          4.5798620490        1.6412983309        1.3358941301
 H          3.7935517691        1.5825455809        2.0703882601
 H          6.0189600290        2.5979928710        2.5921272300
 H          7.7455045290        2.6996519710        0.8327377400
 H          7.2787814590        1.8059551509       -1.4190296999
 H          5.0411349891        0.8021854907       -1.9014963099
 H          3.9473912092       -1.4929331292       -0.0929759798
 H          3.3382208594       -3.6149008993       -0.7466405196
 H          1.5364388395       -5.2818328394       -0.9666331596
 H         -0.7513102806       -4.7436011895       -0.2670567996
 H         -1.6040688607       -2.1897922795        1.9692481103
 C         -2.7083555006       -3.4010331496        0.6271010803
 C         -4.1188065207       -3.0016069197        0.3152976503
 C         -3.2731837806       -3.6476171197       -0.7387025497
 H         -3.5004191206       -4.6643330098       -1.0243434096
 H         -2.8994794707       -3.0378756297       -1.5462976297
 H         -4.9221304306       -3.5728642697        0.7559223303
 H         -4.3313684107       -1.9462092097        0.2235348502
 H         -2.5904044506       -4.2684969396        1.2691469904
