  62
        -98.93804734
 C         -1.2069319093       -1.0306510597        0.1666683911
 C         -1.7202248493        0.0230028309        0.9607094203
 C         -2.8018994794        0.8351981504        0.3782463197
 C         -3.1947227794        0.5962223693       -0.8863372901
 C         -4.2240299095        1.2850652286       -1.7581401706
 C         -5.2531047595        2.2348744890       -1.1505039813
 C         -6.2790469394        1.5668714197       -0.2356694607
 H         -6.8977665794        2.3485044401        0.2104494587
 H         -6.9290965995        0.9352012192       -0.8462462901
 C         -5.7010137793        0.6950952807        0.8761999900
 H         -5.1656358993       -0.1495996697        0.4376950206
 H         -6.5376378193        0.2844346411        1.4478341504
 C         -4.7767091193        1.4142134715        1.8569370293
 H         -4.5740348192        0.7263821122        2.6822274199
 H         -5.2855090593        2.2882540018        2.2677654087
 C         -3.4199932894        1.8610838111        1.2839162589
 H         -3.4982240294        2.8208119007        0.7778180181
 H         -2.7250238493        1.9901583218        2.1189981387
 H         -5.7974554096        2.6793519883       -1.9882674316
 H         -4.7535824495        3.0493731395       -0.6339860420
 H         -4.7467983295        0.4841530881       -2.2910323799
 H         -3.6496362096        1.8334152780       -2.5135713911
 O         -2.6095838695       -0.3746702713       -1.6463259193
 C         -1.6112839494       -1.2043799708       -1.1561481687
 O         -1.1876526194       -2.0261984515       -1.9898059181
 O         -1.2832338792        0.2850094519        2.1139360200
 C         -0.0960194792       -1.8808254192        0.7536261117
 C          1.0852989707       -1.9169103099       -0.1837689683
 C          1.7654138307       -3.0725318502       -0.5437192875
 C          2.8627649707       -3.0020990308       -1.3853246176
 C          3.3191959006       -1.7877314012       -1.8636979686
 C          2.6416531006       -0.6252232409       -1.5123814195
 C          1.5353489706       -0.7020988403       -0.6842972294
 H          0.9936483606        0.2008223099       -0.4474557501
 N          3.0625428605        0.6314054687       -1.9711160006
 S          2.8552347405        1.9757470595       -1.0024309216
 O          1.4803633505        2.4110978894       -1.0271909619
 O          3.8233533404        2.9279422991       -1.5048410225
 C          3.3265693506        1.4435465909        0.6345722488
 C          4.6470111606        1.0870392811        0.8313674490
 C          5.0411813008        0.6271627221        2.0766846993
 C          4.1109883108        0.5262784129        3.1004073495
 C          2.7916914308        0.8946152227        2.8898401993
 C          2.3925346407        1.3595328316        1.6463933089
 H          1.3696757707        1.6462014514        1.4560302587
 H          2.0613329809        0.8165000633        3.6795992194
 H          4.4145978909        0.1609213637        4.0687037097
 H          6.0680071808        0.3452626823        2.2445491995
 H          5.3428503306        1.1876018704        0.0144355088
 H          3.9412324304        0.6408299884       -2.4666921206
 H          4.1785546305       -1.7369150817       -2.5143077087
 H          3.3759935007       -3.9087801010       -1.6675021769
 H          1.4263273608       -4.0304494699       -0.1856631367
 H          0.2212189708       -1.3200292585        1.6502973712
 C         -0.5350155291       -3.2536055888        1.2409212128
 C         -1.9706669691       -3.5412962286        1.5614075632
 C         -1.3205858292       -4.1969661096        0.3818928937
 H         -1.0974158891       -5.2521907095        0.4431387645
 H         -1.5891514592       -3.8621566904       -0.6073656266
 H         -2.1924858690       -4.1421579879        2.4307298037
 H         -2.6920660091       -2.7584061988        1.3754959526
 H          0.1978636509       -3.7004588183        1.9055117632
