  62
        -98.93283267
 C         -2.2665177436       -0.5451892468        0.3206539534
 C         -3.4456180215       -0.5439412182        1.1101937096
 C         -4.4933379195        0.4136023036        0.7278420265
 C         -4.2657428317        1.2541982720       -0.2971997317
 C         -5.2592709397        2.2283288247       -0.8635856113
 C         -6.2817184598        1.4824370765       -1.7448911165
 C         -7.7131041467        1.5052993024       -1.2081366930
 H         -8.1450941545        2.4913399796       -1.3914679785
 H         -8.2903583215        0.7802992082       -1.7859992994
 C         -7.8724301391        1.1944151065        0.2832506513
 H         -8.9313342831        0.9885730815        0.4535483765
 H         -7.6297886582        2.0809310980        0.8710509666
 C         -7.0499973709        0.0132799902        0.8145309208
 H         -7.6647721786       -0.5326676891        1.5330712208
 H         -6.8109958625       -0.6822058794        0.0094925775
 C         -5.7548379337        0.4124896030        1.5462496266
 H         -5.8872676656        1.3919977553        2.0140111402
 H         -5.5684183382       -0.3103990757        2.3460602383
 H         -5.9495283893        0.4477624802       -1.8541463148
 H         -6.2852749852        1.9172769065       -2.7455467000
 H         -5.7619668997        2.7535912411       -0.0545216443
 H         -4.7017271074        2.9525809445       -1.4577339741
 O         -3.1040022725        1.2601649801       -0.9978513881
 C         -2.0741612405        0.3685947439       -0.7165987637
 O         -1.0814286940        0.5070995346       -1.4535286861
 H          0.9368771051       -1.5427949683       -1.0496237986
 C          1.1316474290       -0.9713199713       -0.1550670908
 C          0.1511480993       -0.8647950600        0.8184494404
 C          0.4169447281       -0.0981593259        1.9491147847
 C          1.6325296649        0.5419211474        2.0997971256
 C          2.6070290878        0.4361543439        1.1230132212
 C          2.3490451408       -0.3190915797       -0.0124378695
 N          3.3305232370       -0.4106901220       -1.0158700818
 S          4.8577817694       -0.9410229195       -0.5700750479
 O          5.4376032458       -1.4971842122       -1.7735183831
 O          4.7970883902       -1.8194145924        0.5760320981
 C          5.7287339532        0.5527332330       -0.1459343399
 C          5.7876798794        1.5620426911       -1.0869022817
 C          6.4723705744        2.7261508370       -0.7769488883
 C          7.0858132050        2.8592597479        0.4600118723
 C          7.0199321485        1.8355267419        1.3926208926
 C          6.3355675726        0.6687099703        1.0892039924
 H          6.2524234419       -0.1511587613        1.7846613216
 H          7.4972307245        1.9412270012        2.3536041375
 H          7.6186496168        3.7663492604        0.6980609383
 H          6.5255933248        3.5245188083       -1.4995706222
 H          5.2991748821        1.4185315665       -2.0363004091
 H          3.0119391430       -0.8810171792       -1.8505136853
 H          3.5562447079        0.9356550006        1.2302676658
 H          1.8238608589        1.1306277170        2.9841142794
 H         -0.3463415214       -0.0093260807        2.7101385116
 C         -1.1864291529       -1.5465737805        0.6910867724
 H         -1.4798051863       -1.9002691393        1.6931255740
 C         -1.1389068001       -2.7790158881       -0.2006488423
 C         -2.4039658191       -3.3894773291       -0.7231610814
 C         -1.4384413886       -2.7425998059       -1.6681641052
 H         -0.8591557361       -3.3791995153       -2.3217602061
 H         -1.7017655074       -1.7935194808       -2.1079849299
 H         -3.3285447061       -2.8743623640       -0.5068586182
 H         -2.4936224005       -4.4652306130       -0.7313828602
 H         -0.3645475944       -3.4715830190        0.1175163488
 O         -3.6136506748       -1.3124018483        2.0947942455
