  62
        -98.94085102
 C         -2.3069762797       -0.8300966698       -0.1399171193
 C         -3.5959959388       -1.2136805538        0.3014486138
 C         -4.7215836946       -0.4703614587       -0.2792543828
 C         -4.4741801456        0.4958877567       -1.1826754143
 C         -5.5215595302        1.3666579728       -1.8131281849
 C         -5.7419732002        2.6488714218       -0.9981568421
 C         -5.9457945775        2.4032400034        0.4968712967
 H         -5.0211226531        2.0046601362        0.9206956940
 H         -6.1208907681        3.3742701907        0.9650714996
 C         -7.1068955933        1.4567038666        0.8321253658
 H         -7.6825227777        1.8867068160        1.6544315841
 H         -7.7769054435        1.3747301243       -0.0243710865
 C         -6.6764061084        0.0568304044        1.2739493079
 H         -7.5496803200       -0.4517121960        1.6908045125
 H         -5.9331332943        0.1364346151        2.0712454636
 C         -6.1056388360       -0.8446999368        0.1719377375
 H         -6.7932180332       -0.8705879053       -0.6756816943
 H         -6.0234185673       -1.8564268804        0.5796127602
 H         -6.6096304443        3.1713877236       -1.4049594245
 H         -4.8677306863        3.2920696656       -1.1231333115
 H         -5.1852067666        1.6368708504       -2.8154899688
 H         -6.4522745287        0.8080571913       -1.8905973053
 O         -3.2223322845        0.8259277099       -1.5938186122
 C         -2.1069225365        0.1814615305       -1.0786593480
 O         -1.0210609886        0.5936703256       -1.5312933553
 O         -3.7941136048       -2.1297158417        1.1441780891
 C         -1.0951434278       -1.5519335321        0.4203802129
 C         -0.1495043042       -0.5624888007        1.0542795394
 C         -0.6501562875        0.3343757276        1.9951809082
 C          0.1746855618        1.2697608978        2.5873967730
 C          1.5156119476        1.3328708629        2.2509677810
 C          2.0301573781        0.4325549453        1.3262491203
 C          1.2000869049       -0.5160364145        0.7434523974
 H          1.6203171131       -1.1980397057        0.0251140824
 N          3.4043902993        0.4482620518        1.0167133669
 S          3.9347467575        0.2903535715       -0.5785525434
 O          3.4849873024        1.4129417888       -1.3731663807
 O          3.6055775656       -1.0226745628       -1.0686914573
 C          5.6948261959        0.4001992177       -0.3080896910
 C          6.3681630342        1.5681226425       -0.6101630059
 C          7.7318631495        1.6373729553       -0.3702526874
 C          8.3943748408        0.5445433322        0.1675645808
 C          7.7047991179       -0.6217213780        0.4653023489
 C          6.3421077289       -0.6976751623        0.2265193100
 H          5.7665600935       -1.5845554428        0.4337515685
 H          8.2237386714       -1.4701680961        0.8813430383
 H          9.4553050958        0.6008643454        0.3534697161
 H          8.2709273227        2.5413626116       -0.6038536532
 H          5.8128126463        2.3894298200       -1.0340583076
 H          3.8685096021        1.2466207418        1.4316602862
 H          2.1585801656        2.0729829602        2.7034761138
 H         -0.2293154520        1.9631966183        3.3098668367
 H         -1.7012746661        0.2921100305        2.2477719180
 H         -1.4861188762       -2.2116040746        1.2097958181
 C         -0.4511774736       -2.4069483079       -0.6501746858
 C          0.3060528603       -3.6439819265       -0.2735778257
 C         -1.0268084467       -3.7575330016       -0.9486739468
 H         -1.0610524259       -4.0870146613       -1.9763219979
 H         -1.8746425550       -4.0742660445       -0.3588995198
 H          1.1937290707       -3.8910404262       -0.8363640686
 H          0.3650050242       -3.8917442118        0.7754616835
 H         -0.0867084554       -1.8221979412       -1.4887951368
