  62
        -98.94394019
 C         -1.3999088562       -1.5502279146       -0.6070183140
 C         -2.6383236183       -1.5380798664        0.0844250008
 C         -3.6203017839       -0.5338608946       -0.3402346129
 C         -3.3063527607        0.3033017774       -1.3453323456
 C         -4.1806977739        1.4190214798       -1.8383986129
 C         -3.8722794986        2.7283059086       -1.0990347113
 C         -3.8402450949        2.5868662858        0.4229669974
 H         -2.9869401844        1.9635132303        0.7027998827
 H         -3.6520574313        3.5805500920        0.8360916809
 C         -5.1234506330        2.0093798797        1.0371902437
 H         -5.3878409262        2.6035890834        1.9144141421
 H         -5.9454905400        2.0975775249        0.3258573018
 C         -5.0077200113        0.5562138989        1.5012415017
 H         -5.8835810997        0.3238654789        2.1129900147
 H         -4.1249384697        0.4450116445        2.1363765492
 C         -4.9344703007       -0.4955181605        0.3873620549
 H         -5.0477695057       -1.4795202530        0.8518463612
 H         -5.7588338857       -0.3478878852       -0.3133187987
 H         -4.6208839225        3.4707536535       -1.3826475166
 H         -2.8927897117        3.0885784522       -1.4235418040
 H         -5.2249071330        1.1463262369       -1.6971515530
 H         -3.9911246836        1.5611077391       -2.9037842477
 O         -2.1233417889        0.2503863508       -2.0028436427
 C         -1.1272369045       -0.6502121968       -1.6388352330
 O         -0.0924485383       -0.5433484984       -2.3214711166
 O         -2.9100068051       -2.3429335771        1.0170668657
 C         -0.3726827651       -2.5568130943       -0.1213488428
 C          0.4382839594       -1.9869533364        1.0176456628
 C          0.7969263868       -2.7753089165        2.1053515898
 C          1.5398298228       -2.2412456171        3.1434380805
 C          1.9283119973       -0.9142439191        3.1229754888
 C          1.5578595259       -0.1104444445        2.0487097111
 C          0.8306346328       -0.6564956762        1.0009742538
 H          0.5402841435       -0.0249952356        0.1779800664
 N          1.8847647906        1.2476450753        2.0394936254
 S          1.9543435593        2.2033775172        0.6753061048
 O          2.4765224750        3.4586646328        1.1744279593
 O          0.6663818945        2.2657997845        0.0331602278
 C          3.1868591768        1.4496357077       -0.3695530412
 C          4.5048301766        1.5932704924        0.0247761045
 C          5.5047361026        1.0209685956       -0.7421758034
 C          5.1722640053        0.3185007066       -1.8914531517
 C          3.8475894332        0.1876602682       -2.2743052410
 C          2.8383451304        0.7531928584       -1.5076613595
 H          1.8016045467        0.6458123664       -1.7878203100
 H          3.5813506600       -0.3550761523       -3.1670227873
 H          5.9488197098       -0.1270889537       -2.4928998341
 H          6.5360289727        1.1250521886       -0.4459307400
 H          4.7207409076        2.1667911697        0.9114684278
 H          2.5024160072        1.5606241213        2.7718658954
 H          2.4950962624       -0.4936207363        3.9391432370
 H          1.8135135267       -2.8627242026        3.9823592920
 H          0.4709502999       -3.8041205555        2.1454014826
 H         -0.9654358166       -3.3904009614        0.2897893852
 C          0.4998653884       -3.1224160600       -1.2326723599
 C          1.9389903629       -2.7534222774       -1.4096500561
 C          1.5750355581       -4.1225828662       -0.9249125784
 H          1.7030628169       -4.9596355872       -1.5942623110
 H          1.7664598233       -4.3511676873        0.1118883908
 H          2.3034064689       -2.6356215699       -2.4178623845
 H          2.3741901563       -2.0579923934       -0.7083556339
 H         -0.0680867610       -3.2855050564       -2.1428017462
