  62
        -98.94070719
 C          2.0582040379        0.9624797233        0.2967960863
 C          1.9477799292       -0.0289045985       -0.7099285427
 C          2.1946167547       -1.4109815450       -0.2742540382
 C          2.4689616142       -1.6770142485        1.0141009474
 C          2.7108187644       -3.0375744714        1.6101578812
 C          4.1477989752       -3.5500889560        1.4396533645
 C          4.5219438338       -3.9849027441        0.0220231007
 H          5.4689499379       -4.5235516186        0.0921215051
 H          3.7742515578       -4.6858299820       -0.3501778173
 C          4.6853248836       -2.8280621498       -0.9736935670
 H          4.7975470866       -1.8893929088       -0.4264315178
 H          5.5991137950       -2.9729007965       -1.5541606752
 C          3.5344359534       -2.6820653757       -1.9695117854
 H          3.7327231729       -1.8116970398       -2.5999459539
 H          3.4914124929       -3.5629097495       -2.6139498788
 C          2.1599413878       -2.4878953963       -1.3163313698
 H          1.4463117193       -2.1789290540       -2.0850245229
 H          1.8117825574       -3.4247080331       -0.8806559567
 H          4.8366362064       -2.7719505812        1.7760125318
 H          4.2664393554       -4.4095963119        2.1033522829
 H          2.4995418005       -2.9484575963        2.6780382967
 H          2.0107770179       -3.7535864167        1.1780168179
 O          2.5456428384       -0.7009858557        1.9578363324
 C          2.3409157558        0.6256729946        1.6231956220
 O          2.4483532327        1.4141512043        2.5861340473
 O          1.6601820091        0.1983052823       -1.9153006637
 C          1.7964000427        2.4406105513        0.0606327434
 C          0.3300036421        2.7579730262        0.2478647602
 C         -0.0672372970        3.9171224481        0.9053513569
 C         -1.4085497924        4.1930287292        1.0994090999
 C         -2.3782688941        3.3066156317        0.6666791369
 C         -1.9910589830        2.1478701384        0.0038646896
 C         -0.6466182286        1.8938674091       -0.2227006560
 H         -0.3730675775        0.9933146615       -0.7504951435
 N         -2.9391961465        1.2161446118       -0.4481121397
 S         -2.5471305051       -0.4230956111       -0.2911150830
 O         -1.7980608239       -0.6376294320        0.9269731275
 O         -1.9403558446       -0.8791912329       -1.5153959008
 C         -4.1803801996       -1.1277576234       -0.1415620972
 C         -4.7187921617       -1.3144565175        1.1177416817
 C         -6.0025734529       -1.8250314027        1.2293998450
 C         -6.7239888355       -2.1348390813        0.0860788943
 C         -6.1701553580       -1.9429514702       -1.1709580611
 C         -4.8864081322       -1.4341269905       -1.2895806395
 H         -4.4097582872       -1.2760554590       -2.2429769672
 H         -6.7323814020       -2.1878808746       -2.0575211714
 H         -7.7229974929       -2.5310764489        0.1758805895
 H         -6.4337287882       -1.9786335255        2.2054795978
 H         -4.1163862008       -1.0671564301        1.9773660529
 H         -3.8742449503        1.4103513266       -0.1156626317
 H         -3.4245553102        3.5062586162        0.8414598853
 H         -1.7020399952        5.0960603054        1.6126321188
 H          0.6847761449        4.5936511162        1.2829771963
 H          2.3507761274        2.9739448179        0.8465042654
 C          2.2726061186        2.9478354280       -1.2868182495
 C          2.6717272841        4.3842179019       -1.4331789191
 C          3.7149317213        3.3087942819       -1.4685981509
 H          4.1882622766        3.0716557773       -2.4092688717
 H          4.3661334028        3.2010917496       -0.6130241429
 H          2.4261861323        4.8926005260       -2.3527265422
 H          2.6256759444        5.0121503630       -0.5566265908
 H          1.7695882362        2.4748138675       -2.1200446625
