  62
        -98.94328594
 C         -1.3266209582       -0.9976184115       -0.0020944248
 C         -1.8156144048        0.1030255221        0.7419887193
 C         -2.7799568712        0.9687872651        0.0497495293
 C         -3.1150458835        0.6926807382       -1.2239488536
 C         -4.1160528181        1.4654806259       -2.0323094192
 C         -5.5251276046        0.8742060006       -1.8870565742
 C         -5.9452057625        0.6288707604       -0.4378630400
 H         -6.9659611856        0.2409561696       -0.4568909502
 H         -5.3124741575       -0.1528165096       -0.0113706416
 C         -5.8874712546        1.8732122758        0.4592849677
 H         -6.7996824362        1.9151926639        1.0581650158
 H         -5.8636858731        2.7731473810       -0.1564427079
 C         -4.7111018406        1.8958471950        1.4369055199
 H         -4.6779574351        0.9539395235        1.9900169019
 H         -4.8876559922        2.6951092296        2.1615636021
 C         -3.3302619166        2.1393971749        0.8149185536
 H         -3.3625841337        3.0316281550        0.1861084108
 H         -2.6257405138        2.3184710383        1.6323678817
 H         -6.2346248681        1.5527990494       -2.3642595331
 H         -5.5569687409       -0.0793296227       -2.4193588501
 H         -4.1124440414        2.5047925615       -1.7089576774
 H         -3.8193309295        1.4203127237       -3.0817317719
 O         -2.6033336623       -0.3581713011       -1.9155019257
 C         -1.6992751181       -1.2321849059       -1.3253853376
 O         -1.3066884101       -2.1474921843       -2.0729289545
 H          0.7831008815        0.1442865618       -0.6477582558
 C          1.4310095069       -0.7239692510       -0.6650499239
 C          1.0034714842       -1.9018660453       -0.0671813671
 C          1.8589536570       -2.9973365417       -0.0951354187
 C          3.0994485445       -2.9117296023       -0.7041183074
 C          3.5195431900       -1.7338492393       -1.2961642640
 C          2.6700860608       -0.6379441859       -1.2800713323
 N          3.1128274400        0.5887089415       -1.8410411972
 S          4.1002325174        1.4512636097       -0.7913847371
 O          4.2642824446        2.7615643259       -1.3788713892
 O          5.3023971879        0.6896654185       -0.5722418303
 C          3.1462285421        1.5543316804        0.7112475413
 C          2.2539624734        2.5972096598        0.8614704037
 C          1.4156385144        2.6088791017        1.9642332113
 C          1.4710276520        1.5737721971        2.8845207570
 C          2.3729378165        0.5343456707        2.7190481738
 C          3.2183500504        0.5188807489        1.6214089403
 H          3.9283516722       -0.2750766513        1.4547183236
 H          2.4104303569       -0.2711373579        3.4347564240
 H          0.7964045379        1.5711355969        3.7255048967
 H          0.7099258436        3.4135165278        2.0956979727
 H          2.2365562200        3.3793978231        0.1185709085
 H          2.3463577581        1.1876953415       -2.1168796926
 H          4.4897945187       -1.6406112333       -1.7555677933
 H          3.7494749832       -3.7732093797       -0.7149469247
 H          1.5532910415       -3.9223870236        0.3659708253
 C         -0.3235340990       -1.9259578184        0.6515928822
 H         -0.1594489274       -1.5091331934        1.6578334430
 C         -0.8979709692       -3.3215844327        0.7917916921
 C         -0.5608481035       -4.1695802083        1.9809535657
 C         -1.9287460555       -3.5729426246        1.8503753451
 H         -2.7594034956       -4.2226429289        1.6188658024
 H         -2.1889084497       -2.7446972310        2.4933696044
 H          0.1012739900       -3.7519604492        2.7241789867
 H         -0.4532998099       -5.2346289985        1.8401606692
 H         -1.0349020228       -3.8113623539       -0.1657612659
 O         -1.4559272561        0.3526080334        1.9223511117
