  62
        -98.93889976
 C         -1.6855514149       -1.0098998577        0.0428598113
 C         -2.8884665216       -0.9872773583        0.7952362770
 C         -4.0791831384       -0.4086839155        0.1507581471
 C         -3.9791876910        0.0710778129       -1.1025820843
 C         -5.0152111574        0.6711949639       -2.0297744559
 C         -6.3783855722        1.1061014147       -1.4987893658
 C         -6.3428005490        2.3097348330       -0.5573813218
 H         -6.0762091544        3.1966624417       -1.1379426270
 H         -7.3484865077        2.4631534535       -0.1600612795
 C         -5.3589927184        2.2092610544        0.6058217187
 H         -5.4291537061        3.1349880274        1.1835857358
 H         -4.3388548035        2.1495909891        0.2204918706
 C         -5.5962605372        1.0447326735        1.5652900172
 H         -6.6234618739        1.0758284063        1.9337856440
 H         -4.9296739143        1.1831426268        2.4209232716
 C         -5.3241645650       -0.3550658803        0.9883824184
 H         -5.1593604964       -1.0386562835        1.8263094228
 H         -6.1801363839       -0.7250906259        0.4290477530
 H         -6.8838538287        0.2680463579       -1.0280632071
 H         -6.9765388638        1.3871772760       -2.3698819520
 H         -5.1725717640       -0.0728310740       -2.8185954863
 H         -4.5277585949        1.5268632108       -2.5080776202
 O         -2.8020782084        0.0287504131       -1.7891960468
 C         -1.6371110132       -0.4930215942       -1.2500761737
 O         -0.6628106799       -0.4211017249       -2.0270664547
 O         -2.9686636750       -1.4505225610        1.9641896164
 C         -0.4755783524       -1.6330954374        0.7170923269
 C          0.4658985049       -0.5992498994        1.2857679608
 C          0.8439490538       -0.6303404908        2.6227622970
 C          1.7454627417        0.2929730029        3.1247528619
 C          2.2856324638        1.2684313068        2.3054333500
 C          1.9057657936        1.3118303390        0.9710030135
 C          1.0110231131        0.3800569538        0.4677309395
 H          0.7324949689        0.4149075583       -0.5751189465
 N          2.4662822037        2.2931959054        0.1182517106
 S          4.0913832516        2.0465465341       -0.2180348590
 O          4.8540492080        2.3008721187        0.9775590612
 O          4.3936750312        2.8799271242       -1.3594052414
 C          4.1908015896        0.3209084121       -0.6551498720
 C          4.4485744062       -0.6121816479        0.3287654715
 C          4.4330332115       -1.9564154200       -0.0054326788
 C          4.1575498913       -2.3409999631       -1.3084859512
 C          3.8969737040       -1.3916144794       -2.2843625499
 C          3.9071724393       -0.0462053096       -1.9551232949
 H          3.7105054952        0.7226667068       -2.6854537395
 H          3.6776011064       -1.6938619408       -3.2959567297
 H          4.1470396144       -3.3879611957       -1.5690370265
 H          4.6300058195       -2.6978090262        0.7519604036
 H          4.6599193203       -0.2709384664        1.3287671737
 H          1.9651424020        2.3668177711       -0.7570845527
 H          3.0013741239        1.9863615025        2.6718819524
 H          2.0302264092        0.2537677269        4.1650588958
 H          0.4199704559       -1.3809786002        3.2732920248
 H         -0.8860346117       -2.2103855285        1.5562856895
 C          0.2939076998       -2.5793016425       -0.1858709929
 C          1.0753371049       -3.6979496909        0.4314756997
 C         -0.1780985220       -3.9929790184       -0.3352469232
 H         -0.0970710907       -4.4619826402       -1.3041331287
 H         -1.0593819934       -4.2854390952        0.2171889650
 H          2.0219728430       -3.9658004572       -0.0095933029
 H          1.0447222319       -3.7960796787        1.5057576524
 H          0.7078933927       -2.0957444289       -1.0613653687
