  62
        -98.93331072
 C         -2.6296007882       -0.2705139572        0.5867555054
 C         -2.0798056101        0.2236458990       -0.6206836169
 C         -1.8265411957        1.6782826831       -0.6965992850
 C         -2.1487602992        2.4532554533        0.3541980151
 C         -2.0102206106        3.9458115477        0.5092152972
 C         -0.5681991673        4.3958518154        0.7775244102
 C          0.4777732175        3.7788960448       -0.1464218145
 H          1.4573128510        4.1443272590        0.1749873053
 H          0.4866768069        2.6946520703       -0.0190468102
 C          0.3205626864        4.1198979632       -1.6267810154
 H          0.3170086623        5.2058183473       -1.7478733843
 H          1.2043708270        3.7288920695       -2.1378130477
 C         -0.9143500707        3.5441073642       -2.3261448095
 H         -0.7334700956        3.6026535474       -3.4033846507
 H         -1.8009605078        4.1419680923       -2.1291736960
 C         -1.1960165832        2.0794241066       -2.0071050579
 H         -0.2644869831        1.5028315077       -2.0807885342
 H         -1.8503520036        1.6675554069       -2.7850160604
 H         -0.3110447881        4.1213254656        1.8035596010
 H         -0.5303176138        5.4842953758        0.6982272762
 H         -2.4114334684        4.4505801068       -0.3647594505
 H         -2.6260972488        4.2248679869        1.3675901929
 O         -2.6756406107        1.9312921656        1.5013108996
 C         -2.8795822979        0.5763252966        1.6663810326
 O         -3.2849059616        0.2507730253        2.8020476761
 O         -1.8112658480       -0.5039226843       -1.6121581051
 C         -2.8329944717       -1.7603431313        0.8214535359
 C         -1.6055496631       -2.4854249472        0.3269546955
 C         -1.6159001126       -3.5104744501       -0.6089057478
 C         -0.4278406700       -4.0416988149       -1.0825059437
 C          0.7918685683       -3.5553044173       -0.6473571140
 C          0.8085655472       -2.5513770721        0.3082102503
 C         -0.3777623997       -2.0440735885        0.8050267953
 H         -0.3513795067       -1.2390538790        1.5314208544
 N          2.0579846104       -1.9821549483        0.7058445663
 S          2.3192365062       -0.5597639964       -0.1842343196
 O          1.5034897415        0.5147712201        0.3414607235
 O          2.1716911370       -0.8700971807       -1.5824219139
 C          4.0378016427       -0.2466277669        0.1769761283
 C          4.3994125756        0.8296934959        0.9625280098
 C          5.7413597917        1.0297271513        1.2487437965
 C          6.6915064123        0.1516721536        0.7507833249
 C          6.3121534147       -0.9260971732       -0.0361056553
 C          4.9731946314       -1.1296850014       -0.3272655410
 H          4.6300262586       -1.9472440827       -0.9389103904
 H          7.0541879833       -1.6062604013       -0.4220007187
 H          7.7344311902        0.3089602845        0.9762964626
 H          6.0383227496        1.8677397590        1.8586557362
 H          3.6254963194        1.4871851811        1.3256749654
 H          2.0305798155       -1.7025698281        1.6796379036
 H          1.7223260660       -3.9235684275       -1.0470001027
 H         -0.4544277602       -4.8259346598       -1.8238183672
 H         -2.5545256037       -3.8657085058       -1.0021794887
 H         -2.8766952504       -1.8693042269        1.9184568292
 C         -4.1372738354       -2.3204379474        0.2768819218
 C         -5.3397399926       -1.4417095483        0.1075932240
 C         -4.6369064764       -1.9899278824       -1.0960276743
 H         -5.1269863462       -2.7679221676       -1.6630342005
 H         -4.0377676467       -1.3228202772       -1.6950008600
 H         -6.3077482720       -1.8425753987        0.3681940781
 H         -5.2258127145       -0.3913227271        0.3342111426
 H         -4.3269632185       -3.3269795212        0.6368553664
