  62
        -98.93896473
 C          2.0283967354        1.0571261521       -0.2296564587
 C          2.3975757602        0.2980847361        0.9104394217
 C          2.6390347096       -1.1330883413        0.7014015204
 C          2.4458720849       -1.6534158233       -0.5236045518
 C          2.6711868141       -3.0913187890       -0.8911644809
 C          4.1060194759       -3.3243184419       -1.3848464498
 C          5.1769220576       -2.7351973295       -0.4667184147
 H          6.1485274115       -2.9837683767       -0.8989008133
 H          5.0895582543       -1.6463801276       -0.4735649617
 C          5.1168536949       -3.2383982761        0.9822047956
 H          6.1289434210       -3.4851117813        1.3094969019
 H          4.5268299225       -4.1540860305        1.0316630013
 C          4.5601055106       -2.2238356159        1.9827109451
 H          4.7627974600       -2.5940007010        2.9911298043
 H          5.0860191604       -1.2725064227        1.8707929516
 C          3.0528892840       -1.9526941303        1.8911436864
 H          2.5040633449       -2.8967344606        1.9144463584
 H          2.7637270389       -1.3675962708        2.7691711301
 H          4.2097491979       -2.8663021605       -2.3711851941
 H          4.2641657511       -4.3991380086       -1.4901927500
 H          2.4659311149       -3.7153266103       -0.0232476073
 H          1.9711932923       -3.3529137054       -1.6868841716
 O          2.0672510601       -0.9063546784       -1.5894321789
 C          1.8390085399        0.4626110163       -1.4778031840
 O          1.5045624301        0.9953843210       -2.5518232348
 H         -0.5290968725        1.2062050518       -0.7061099601
 C         -0.6967870039        1.8606065825        0.1372807177
 C          0.3431786331        2.6313363933        0.6365957088
 C          0.0943218772        3.4681736543        1.7179185517
 C         -1.1644263557        3.5209972629        2.2903667817
 C         -2.1883572285        2.7229987549        1.8136433964
 C         -1.9492576086        1.8840002477        0.7306719244
 N         -2.9596665013        1.0550060237        0.2163986889
 S         -2.5002927841       -0.4750097288       -0.3424784386
 O         -1.4937052593       -1.0408151156        0.5274404304
 O         -2.1691319440       -0.3768022024       -1.7416471436
 C         -4.0422191258       -1.3532590935       -0.1571368711
 C         -5.0044358418       -1.2229675672       -1.1408986274
 C         -6.2188471871       -1.8709965927       -0.9798354216
 C         -6.4501292116       -2.6330780874        0.1558597600
 C         -5.4741554586       -2.7564364951        1.1333663632
 C         -4.2577184271       -2.1098030406        0.9792183377
 H         -3.4657068368       -2.1817885889        1.7074940120
 H         -5.6550608926       -3.3521245855        2.0134966516
 H         -7.3960025313       -3.1363849911        0.2787243501
 H         -6.9784525107       -1.7797401481       -1.7392466818
 H         -4.7739055489       -0.6275234390       -2.0089491659
 H         -3.7722432322        1.0053786654        0.8162348196
 H         -3.1632437254        2.7429570016        2.2764092084
 H         -1.3444907834        4.1734284424        3.1311313768
 H          0.9012845088        4.0594310218        2.1249566660
 C          1.7205168662        2.5221840275        0.0289741721
 H          2.4403225491        2.8406853163        0.8014372781
 C          1.9097063977        3.4325990621       -1.1729987189
 C          0.7670092686        3.9609206343       -1.9815460060
 C          1.5368207422        4.8834331697       -1.0876299907
 H          2.1944108197        5.6102760760       -1.5394721878
 H          1.0506218720        5.2226600118       -0.1858012416
 H         -0.2325547094        3.6758091024       -1.6907671776
 H          0.9010993521        4.0282045302       -3.0501255616
 H          2.8133068593        3.1921329651       -1.7230490976
 O          2.5260013128        0.8084999320        2.0572528865
