  62
        -98.93240463
 C          2.0128745303        1.0883960652       -0.3978739252
 C          2.7983036138        0.6495855481        0.6968593210
 C          3.3738995945       -0.7029067349        0.6217651487
 C          3.1133113669       -1.4638979710       -0.4571389310
 C          3.5029378523       -2.8890974895       -0.7919692740
 C          4.5817731927       -3.6116040483        0.0106945189
 C          5.9932935904       -3.0538688572       -0.1705913380
 H          6.6574180466       -3.5718861996        0.5245372776
 H          6.3283652729       -3.2830570474       -1.1852765736
 C          6.1379016456       -1.5477595437        0.0321627792
 H          7.1850595242       -1.2859994423       -0.1421559466
 H          5.5449359150       -1.0186184418       -0.7166799197
 C          5.7559828811       -1.0350207442        1.4192091474
 H          6.0521590252        0.0158768553        1.4744551255
 H          6.3164489269       -1.5811572931        2.1803071827
 C          4.2587419564       -1.1110030192        1.7646998718
 H          3.9856557971       -2.0990149821        2.1278345005
 H          4.0605779123       -0.3989296225        2.5711499552
 H          4.5885301072       -4.6472170902       -0.3399964894
 H          4.3124043366       -3.6371921095        1.0623759523
 H          3.7873805787       -2.8798656880       -1.8491513199
 H          2.5741861177       -3.4676197905       -0.7297099275
 O          2.3397426392       -1.0071506986       -1.4835892273
 C          1.7675025654        0.2602812747       -1.4926449237
 O          1.1111092721        0.4944129782       -2.5234465981
 O          3.0120007748        1.3717038357        1.7087686855
 C          1.4063955431        2.4732189805       -0.2613064581
 C          0.1789797149        2.4225779886        0.6148128145
 C         -0.0640497229        3.4136023874        1.5589653390
 C         -1.2049559097        3.3743887787        2.3404456116
 C         -2.1228102959        2.3510099250        2.1929032986
 C         -1.8788571928        1.3429324433        1.2654627620
 C         -0.7334893833        1.3856930368        0.4842126358
 H         -0.5561203670        0.6013925095       -0.2374539563
 N         -2.7689401056        0.2656452632        1.1372082027
 S         -2.8845050272       -0.5421635281       -0.3397189430
 O         -1.8059327263       -1.4944511256       -0.4302774881
 O         -3.0148031405        0.4129874425       -1.4161219096
 C         -4.4277681045       -1.4029688979       -0.0981767061
 C         -5.5914814144       -0.8642823731       -0.6137629136
 C         -6.7910144186       -1.5230238570       -0.3932259533
 C         -6.8070135574       -2.7011737948        0.3380048757
 C         -5.6308409959       -3.2306454494        0.8482598129
 C         -4.4280857192       -2.5776058818        0.6302708956
 H         -3.4878865589       -2.9543552764        0.9982711076
 H         -5.6464235436       -4.1484610377        1.4135206947
 H         -7.7414230192       -3.2119406626        0.5087051218
 H         -7.7060006274       -1.1157265573       -0.7920274283
 H         -5.5277907302        0.0489351154       -1.1833181313
 H         -3.6749124644        0.4448620449        1.5478633097
 H         -3.0148856246        2.3201769183        2.7993830161
 H         -1.3840019532        4.1503890978        3.0689376100
 H          0.6554760381        4.2089247815        1.6861396610
 H          2.1619771849        3.0706599854        0.2759720472
 C          1.1364196611        3.1704754101       -1.5854070144
 C         -0.2148662455        3.2154763660       -2.2263318490
 C          0.3686500990        4.4589146615       -1.6293756673
 H          0.7105276904        5.2370806640       -2.2947740513
 H         -0.0623116403        4.8186362556       -0.7076496738
 H         -0.2594101913        3.1175218095       -3.3003199103
 H         -1.0361965295        2.7261514905       -1.7240619132
 H          1.9803419912        3.0831836969       -2.2623597384
