  62
        -98.94294217
 C          2.0023733218       -0.2863212410        0.2262746866
 C          2.7929191990        0.7215129216       -0.3793415428
 C          4.1575506521        0.3247094212       -0.7536946665
 C          4.5729436228       -0.9385173383       -0.5568459447
 C          5.9242332610       -1.4956073416       -0.9133887005
 C          7.0050159495       -1.2352000764        0.1449959837
 C          7.4970937527        0.2102142697        0.2311444797
 H          8.3962099364        0.2055618637        0.8506074564
 H          7.7883450596        0.5531692818       -0.7621471474
 C          6.4835895783        1.1893284732        0.8399806332
 H          5.7129461294        0.6296572123        1.3752112970
 H          6.9858487861        1.8231746395        1.5743352804
 C          5.8095695326        2.1151262083       -0.1726431115
 H          6.5565382259        2.7751059082       -0.6192708035
 H          5.0860556370        2.7366833655        0.3607471875
 C          5.0672423456        1.3843808830       -1.2989106235
 H          4.4494400176        2.1118535407       -1.8307383624
 H          5.7795987613        0.9506405857       -2.0001217075
 H          7.8581910806       -1.8732093016       -0.0971168280
 H          6.6222466198       -1.5487583812        1.1190908237
 H          6.2472519526       -1.0900019946       -1.8725854477
 H          5.7970786987       -2.5753842445       -1.0172774639
 O          3.7719986785       -1.8900419275       -0.0070950197
 C          2.4913449546       -1.5827317387        0.4174216948
 O          1.8887556161       -2.5402886947        0.9454422648
 O          2.4034994750        1.8955784621       -0.6132776229
 C          0.5890980780       -0.0501027159        0.7328587320
 C         -0.4442470268       -0.1264933888       -0.3657582632
 C         -0.3394858745        0.6339244464       -1.5260087383
 C         -1.3110694257        0.5537547463       -2.5065077284
 C         -2.4189217417       -0.2586414656       -2.3375207730
 C         -2.5404569051       -1.0103175126       -1.1760335841
 C         -1.5484275635       -0.9513011592       -0.2067404590
 H         -1.6547102885       -1.5529659829        0.6832951711
 N         -3.6709130752       -1.8222152725       -0.9477459521
 S         -4.6095425381       -1.4467841215        0.3893110211
 O         -3.8551360550       -1.6698383460        1.5949970749
 O         -5.8200125391       -2.2211743715        0.2320324040
 C         -4.9669666383        0.2901102124        0.1891440393
 C         -6.1315295065        0.6588602728       -0.4558913952
 C         -6.3730128996        2.0030571489       -0.6890042227
 C         -5.4432363749        2.9502489225       -0.2872933268
 C         -4.2776968788        2.5635088184        0.3560927818
 C         -4.0332681243        1.2211221365        0.5996116608
 H         -3.1373416335        0.8891748147        1.0980312958
 H         -3.5522678807        3.2986440915        0.6656096491
 H         -5.6271181223        3.9962628515       -0.4754130093
 H         -7.2802193623        2.3069035325       -1.1859995512
 H         -6.8265276900       -0.1113721880       -0.7492429782
 H         -4.2672910803       -1.9219128406       -1.7578388812
 H         -3.1828584835       -0.3125778458       -3.0985768744
 H         -1.2115740080        1.1408216216       -3.4067234490
 H          0.5101421834        1.2869160848       -1.6504794951
 H          0.3858777373       -0.8733138641        1.4319195960
 C          0.4381106906        1.2588382514        1.4867215181
 C         -0.6271768357        1.3742274774        2.5334330858
 C          0.8164230540        1.3157851066        2.9343211127
 H          1.2869287785        2.2121029252        3.3094544144
 H          1.1819077709        0.4071570461        3.3914018597
 H         -1.1490102579        2.3131734442        2.6390815039
 H         -1.2395124083        0.5049177657        2.7285623477
 H          0.6520985632        2.1289532666        0.8801200271
