  62
        -98.94251276
 C          1.4567199994        0.9624116201       -0.4057714813
 C          2.8088355594        1.3642607799       -0.5508192018
 C          3.8055910793        0.2864542197       -0.6060460317
 C          3.3967998491       -0.9906849602       -0.4987551511
 C          4.3058630689       -2.1849195803       -0.4961369609
 C          4.7329167393       -2.5570856498        0.9304633591
 C          5.2483522496       -1.3735580796        1.7491165385
 H          4.4273644498       -0.6731953294        1.9190916985
 H          5.5487947998       -1.7591627693        2.7258171786
 C          6.4270524096       -0.6254156400        1.1108431880
 H          6.8941268693       -1.2501398604        0.3485543281
 H          7.1793997698       -0.4358948298        1.8794463077
 C          6.0629133296        0.7296531098        0.5011230275
 H          5.5117282499        1.3250366102        1.2334820475
 H          6.9910880596        1.2632382296        0.2792887671
 C          5.2435373493        0.6807512495       -0.7947325322
 H          5.2253732593        1.6915067693       -1.2132177426
 H          5.7328923590        0.0207499191       -1.5142421221
 H          5.5069550391       -3.3243616900        0.8700550292
 H          3.8714154993       -2.9824896795        1.4500240595
 H          3.7685716187       -3.0267454004       -0.9358845104
 H          5.1822613188       -1.9685497307       -1.1041243212
 O          2.0972638291       -1.3375752899       -0.3287267106
 C          1.0916375493       -0.3778242898       -0.2615636707
 O         -0.0410797508       -0.8522597395       -0.0732350603
 H         -2.2805294405        1.3803624707       -0.4742858905
 C         -1.8986548303        1.4510692910        0.5295871594
 C         -0.5739727202        1.7864146309        0.7588657189
 C         -0.1209498698        1.8605144613        2.0736000687
 C         -0.9709252096        1.5968697318        3.1297192391
 C         -2.2896352697        1.2482810419        2.8968143495
 C         -2.7522435400        1.1749276915        1.5884920597
 N         -4.0886362301        0.8442776016        1.3289073402
 S         -4.5527426106        0.0498634611       -0.0607583694
 O         -4.4868331708        0.9441811607       -1.1904167598
 O         -5.8745684106       -0.4521674986        0.2571044811
 C         -3.4447960809       -1.3271713491       -0.2909368092
 C         -3.2035412607       -2.1719718287        0.7726769211
 C         -2.3781354809       -3.2667053489        0.5828713313
 C         -1.8154636013       -3.5006406895       -0.6612364888
 C         -2.0723703514       -2.6461828798       -1.7199034591
 C         -2.8939235812       -1.5472530197       -1.5347175093
 H         -3.1088550413       -0.8510684499       -2.3298091195
 H         -1.6263398017       -2.8243165003       -2.6860089791
 H         -1.1644966915       -4.3489859496       -0.8045272687
 H         -2.1684167408       -3.9301130987        1.4068899414
 H         -3.6552635104       -1.9688191583        1.7303490511
 H         -4.6241824000        0.5472458420        2.1306060104
 H         -2.9553928895        1.0352589423        3.7192434098
 H         -0.6044466393        1.6560126721        4.1435707389
 H          0.9133972003        2.1199387012        2.2552414384
 C          0.3998744696        2.0516417603       -0.3599504815
 H          0.9597008298        2.9702582903       -0.1164484420
 C         -0.2857873807        2.3031398299       -1.6944900714
 C          0.4455815289        2.1171235093       -2.9890616815
 C         -0.6735391011        1.1918251496       -2.6213183809
 H         -1.6107492713        1.2791069096       -3.1525413307
 H         -0.4336262212        0.1836162097       -2.3211009505
 H          1.4565254289        1.7392747592       -2.9424258516
 H          0.2837877288        2.8361730990       -3.7780197417
 H         -0.9662838206        3.1484643500       -1.6450170315
 O          3.1664875696        2.5703732598       -0.6288938024
