  62
        -98.94471939
 C          2.1038019805        0.9227016445       -0.0600767022
 C          2.8463929007        0.4305261821        1.0462271109
 C          3.5344469049       -0.8515619253        0.8567232933
 C          3.4036096160       -1.4969745124       -0.3162223219
 C          4.0740602191       -2.7938850602       -0.6632208917
 C          5.4359000956       -2.5568081221       -1.3309067208
 C          6.3281762501       -1.5698325465       -0.5781662880
 H          5.8686940528       -0.5793303341       -0.6104211684
 H          7.2721681390       -1.5044833309       -1.1233163985
 C          6.6059185639       -1.9518903664        0.8824180521
 H          7.6698826970       -1.8122014161        1.0844195285
 H          6.3825382345       -3.0079248890        1.0378259779
 C          5.8434855432       -1.1162318614        1.9122905190
 H          5.9878567216       -0.0538296205        1.7009996610
 H          6.2734156369       -1.3157785999        2.8973161277
 C          4.3368537417       -1.3877826240        2.0088815700
 H          3.9618753835       -0.8740066440        2.8987663932
 H          4.1623781973       -2.4586648995        2.1323124542
 H          5.2644397990       -2.1662861880       -2.3367037550
 H          5.9467236156       -3.5170856370       -1.4219120318
 H          3.4282955176       -3.3391167832       -1.3539705253
 H          4.1988068457       -3.3841233344        0.2426966594
 O          2.6712837152       -1.0075622968       -1.3469529753
 C          2.0046627411        0.2052920402       -1.2521311926
 O          1.3859290880        0.5085333302       -2.2932466825
 O          2.9304837571        1.0429221631        2.1437773494
 C          1.3684627760        2.2389651532        0.1456556705
 C         -0.0793709006        1.9425732787        0.4545197839
 C         -0.5680234392        2.0614767479        1.7506706009
 C         -1.8751933104        1.7168309457        2.0465590795
 C         -2.7167280979        1.2338159266        1.0601154866
 C         -2.2336521267        1.1020692746       -0.2347386721
 C         -0.9326407262        1.4730454188       -0.5344382049
 H         -0.5610864541        1.3441135886       -1.5401125397
 N         -3.0729312062        0.5592195511       -1.2357904729
 S         -3.4338302357       -1.0726702739       -1.0084717354
 O         -2.3759795249       -1.7534900773       -0.2946323488
 O         -3.7613806009       -1.5863761812       -2.3208803996
 C         -4.9113884491       -1.0350544699       -0.0152150995
 C         -4.8989933279       -1.5713903506        1.2573275558
 C         -6.0602924377       -1.5285963509        2.0133265317
 C         -7.2063740349       -0.9533448329        1.4859080112
 C         -7.2026361699       -0.4208955447        0.2050289788
 C         -6.0455170138       -0.4612711815       -0.5562980241
 H         -5.9988959623       -0.0657142898       -1.5570983467
 H         -8.0960339018        0.0246990504       -0.2016995250
 H         -8.1080578746       -0.9207053148        2.0768107784
 H         -6.0647347771       -1.9423001691        3.0089746202
 H         -3.9818564819       -2.0027979249        1.6255954987
 H         -2.6810276883        0.6720877463       -2.1616824675
 H         -3.7325826852        0.9519293590        1.2846539198
 H         -2.2400906210        1.8168277716        3.0573139758
 H          0.0950249400        2.4046691599        2.5315913703
 H          1.8189576873        2.6813876324        1.0441233876
 C          1.5277454393        3.2148371930       -1.0017369290
 C          1.2384041414        4.6655966653       -0.7623095434
 C          2.6500500559        4.2068012953       -0.9675769731
 H          3.1459357759        4.4537273383       -1.8943242515
 H          3.3096084695        4.1862053757       -0.1122950721
 H          0.7620074286        5.2315676307       -1.5478790167
 H          0.9404382846        4.9564964882        0.2335651439
 H          1.2657606744        2.8000871528       -1.9661932522
