  62
        -98.94892770
 C          2.2224522364        0.8847133862        0.0816579581
 C          1.5895323308        0.1378767708       -0.9407961292
 C          2.0180515579       -1.2604922993       -1.0749578977
 C          2.9300092593       -1.7542433006       -0.2183767893
 C          3.4609075897       -3.1582118081       -0.2412851888
 C          2.6486257746       -4.0948058759        0.6620770949
 C          1.1377824473       -4.0182106970        0.4412508012
 H          0.6759506430       -4.7638188545        1.0933490825
 H          0.7677759293       -3.0434688149        0.7682097680
 C          0.6904103164       -4.2600006668       -1.0070222973
 H          1.4810031301       -4.7658104520       -1.5637095988
 H         -0.1767085309       -4.9238535415       -0.9949125227
 C          0.2683777635       -2.9898143971       -1.7481899418
 H         -0.2823103044       -3.2828741672       -2.6463405750
 H         -0.4121528604       -2.4187769919       -1.1114441340
 C          1.4114019221       -2.0659849601       -2.1890068198
 H          2.1779972280       -2.6486167030       -2.7052903064
 H          0.9990918707       -1.3380076033       -2.8938826669
 H          2.8543813607       -3.8383692959        1.7041145242
 H          2.9906897958       -5.1176865765        0.4905769117
 H          3.4460027437       -3.5251769667       -1.2659629695
 H          4.4938001946       -3.1364590529        0.1119537475
 O          3.4697524028       -1.0233776971        0.7921103414
 C          3.1208595295        0.3045823427        0.9742277969
 O          3.6721174036        0.8541685452        1.9520949355
 H          0.3499450455        0.9365509461        1.9025128594
 C         -0.2465271713        1.6347671394        1.3268993734
 C          0.3837075947        2.4900753196        0.4310391580
 C         -0.3985813414        3.3820096751       -0.2908428004
 C         -1.7764029074        3.3816897885       -0.1531974953
 C         -2.4024485896        2.4813071137        0.6897804757
 C         -1.6248625486        1.6077458231        1.4370919849
 N         -2.2773819195        0.6168974836        2.2323304250
 S         -2.2720078573       -0.8582294096        1.4016221223
 O         -3.0031189717       -1.7849683818        2.2407312024
 O         -0.9250945571       -1.2668710828        1.0659950816
 C         -3.2111067595       -0.4672522327       -0.0537999837
 C         -2.5637100571       -0.0352345114       -1.1943196047
 C         -3.3280580811        0.3167619661       -2.2965408490
 C         -4.7106308024        0.2356733903       -2.2385714456
 C         -5.3434917649       -0.1987786605       -1.0831456602
 C         -4.5880750739       -0.5514973176        0.0228833356
 H         -5.0304224308       -0.8963111189        0.9430638334
 H         -6.4190256724       -0.2601339465       -1.0405923102
 H         -5.2978964546        0.5140541012       -3.0994921458
 H         -2.8307955765        0.6585610373       -3.1899725248
 H         -1.4859480918        0.0305110804       -1.2137301041
 H         -1.8151178531        0.4675665169        3.1204214258
 H         -3.4760463505        2.4404632926        0.7749952793
 H         -2.3705261314        4.0737418917       -0.7294378877
 H          0.0710832435        4.0653457978       -0.9792549666
 C          1.8767256714        2.3532799098        0.2691696493
 H          2.3629486931        2.6659588927        1.2048538359
 C          2.4397744958        3.1698811272       -0.8753990376
 C          2.8070598588        4.6078782801       -0.6683897489
 C          3.8810891245        3.5761142978       -0.8338417395
 H          4.4478191652        3.5605613918       -1.7525828644
 H          4.4525614466        3.2828481219        0.0350734619
 H          2.6407627558        5.3045446198       -1.4759352930
 H          2.6553867343        5.0261372548        0.3151273128
 H          2.0312325590        2.8758915870       -1.8353779091
 O          0.7252491278        0.6218041720       -1.7173626664
