  62
        -98.93600445
 C         -1.7269791486       -0.3817065975        0.4101239751
 C         -2.9002742297       -0.3251458221        1.1976046030
 C         -4.1669782516       -0.5224238669        0.4804456080
 C         -4.1509827701       -0.7547914852       -0.8446420292
 C         -5.3429004577       -1.0289433226       -1.7234918507
 C         -6.3498720077        0.1260773571       -1.8864103719
 C         -7.5305288572        0.0787041380       -0.9085587917
 H         -8.4392354991        0.3664993928       -1.4412189331
 H         -7.6734367828       -0.9514914724       -0.5801570584
 C         -7.4217458668        0.9943121146        0.3145592216
 H         -7.6537054049        2.0189914756        0.0150443939
 H         -8.1819325098        0.6829199825        1.0342742659
 C         -6.0612107776        1.0186708931        1.0114181712
 H         -5.3560679880        1.6067230072        0.4189217304
 H         -6.1746744666        1.5421523353        1.9629597356
 C         -5.4402854214       -0.3696827639        1.2606491111
 H         -6.1456125373       -1.1585769285        1.0039049464
 H         -5.1745103259       -0.4742908910        2.3145327712
 H         -5.8266270760        1.0786683334       -1.8073326642
 H         -6.7460732862        0.0589279377       -2.9008797500
 H         -4.9292771942       -1.2810367838       -2.7019761101
 H         -5.8628196776       -1.9112178726       -1.3433707094
 O         -2.9964981752       -0.8111622227       -1.5637583707
 C         -1.7614732410       -0.6131895610       -0.9649996726
 O         -0.7948436375       -0.6724831386       -1.7472469564
 O         -2.8901262747       -0.1210779712        2.4419077739
 C         -0.3803632601       -0.1758734311        1.0778241549
 C          0.3399742245        0.9988409149        0.4638073196
 C         -0.3605411838        2.1823223006        0.2424319335
 C          0.2618084531        3.2771818515       -0.3233162747
 C          1.6018342867        3.2229294619       -0.6654237487
 C          2.3144922030        2.0533586238       -0.4358576791
 C          1.6825280945        0.9506379537        0.1240840458
 H          2.2535455736        0.0537695777        0.2947143537
 N          3.6682170740        1.9601418052       -0.7863811130
 S          4.7398208361        1.1197026122        0.1814677571
 O          4.4054726167        1.2423044628        1.5811597087
 O          6.0432636242        1.6200544187       -0.2019865388
 C          4.6040270165       -0.5777879803       -0.3376583922
 C          4.3950175103       -0.8623600782       -1.6723318433
 C          4.3335836391       -2.1879918098       -2.0712734406
 C          4.4896524596       -3.2008770573       -1.1372987302
 C          4.7055547348       -2.8985766343        0.1981758439
 C          4.7638525404       -1.5746084497        0.6045708839
 H          4.9184471613       -1.2940050514        1.6344450396
 H          4.8264865895       -3.6877929878        0.9233486828
 H          4.4408685499       -4.2315668328       -1.4516139970
 H          4.1612919307       -2.4266389487       -3.1084810064
 H          4.2722643083       -0.0529804550       -2.3723877435
 H          4.0760097150        2.8044196213       -1.1599763566
 H          2.0901640223        4.0776749920       -1.1083605878
 H         -0.2977735313        4.1845043120       -0.4953742822
 H         -1.4061167581        2.2289476718        0.5156137742
 H         -0.6072328740        0.0747652378        2.1253535643
 C          0.4199001241       -1.4612140617        1.0482928812
 C          1.4173426184       -1.7592311193        2.1262525417
 C          0.1268611457       -2.5184303023        2.0687532396
 H          0.1500112675       -3.5528006681        1.7609357095
 H         -0.6323027638       -2.2983433149        2.8051084450
 H          2.3264666013       -2.2737576628        1.8542889051
 H          1.5457112945       -1.0244506719        2.9070033983
 H          0.6444942476       -1.7869659867        0.0385311252
