  62
        -98.94126846
 C         -2.4937262218       -1.3585421401       -0.0152566033
 C         -3.2196200170       -0.6785030846        0.9977725969
 C         -4.0667360489        0.4384328189        0.5627779955
 C         -4.1177157434        0.7506220268       -0.7444968892
 C         -4.8990474664        1.8922349231       -1.3260082735
 C         -4.0478347843        3.1674122742       -1.4020792227
 C         -3.3185014406        3.5035109328       -0.1009597423
 H         -2.5667116801        2.7352305252        0.0981422964
 H         -2.7782736507        4.4389631234       -0.2636036199
 C         -4.2351224794        3.6474142668        1.1222236141
 H         -5.2648384158        3.7998963594        0.7968767919
 H         -3.9351231936        4.5372225627        1.6795186137
 C         -4.1803245000        2.4709819593        2.0987429069
 H         -3.1388733202        2.2527929847        2.3497005387
 H         -4.6833876423        2.7718700157        3.0214927524
 C         -4.8431106117        1.1738045739        1.6182991376
 H         -4.9026925817        0.4944816202        2.4735592153
 H         -5.8576186202        1.3845158203        1.2740335469
 H         -3.3000056694        3.0399930364       -2.1885521189
 H         -4.6966140334        3.9993809909       -1.6820962405
 H         -5.7820575184        2.0684700571       -0.7148411845
 H         -5.2138774819        1.6159475659       -2.3337616504
 O         -3.4159735869        0.0765564693       -1.6886005725
 C         -2.5741044499       -0.9785932364       -1.3550474710
 O         -1.9816223028       -1.4665738804       -2.3365757263
 O         -3.1666662198       -1.0025084992        2.2142834533
 C         -1.6170370091       -2.5135391245        0.4400579143
 C         -0.2060460711       -2.0420535245        0.6824807967
 C          0.4171460181       -2.2345621683        1.9093387601
 C          1.7023866895       -1.7680840323        2.1268244226
 C          2.3910038550       -1.1040871062        1.1275379576
 C          1.7744768667       -0.9015167064       -0.1004633681
 C          0.4874859793       -1.3703626879       -0.3157145600
 H          0.0106767727       -1.2074735099       -1.2716842619
 N          2.4663109474       -0.2243406792       -1.1244440815
 S          3.0028974194        1.3286990955       -0.7637220266
 O          2.1740016035        1.9506179444        0.2441210935
 O          3.0924843649        2.0112502389       -2.0360903103
 C          4.6457586505        1.0644191491       -0.1303719251
 C          4.9812042700        1.5159842435        1.1308897703
 C          6.2678080854        1.2986539308        1.5995795045
 C          7.1903944053        0.6381529292        0.8027874791
 C          6.8380008991        0.1931188376       -0.4628979552
 C          5.5541619897        0.4079882504       -0.9378568609
 H          5.2397237826        0.0827400967       -1.9154774196
 H          7.5582029899       -0.3199952013       -1.0795498949
 H          8.1902789704        0.4695216874        1.1702480860
 H          6.5436467422        1.6443414975        2.5828661853
 H          4.2279997872        2.0189093968        1.7162937288
 H          1.9600507937       -0.2176888845       -1.9994174866
 H          3.3909633045       -0.7366969318        1.2911285590
 H          2.1729585909       -1.9222058769        3.0857228599
 H         -0.1201910983       -2.7365814890        2.7004976148
 H         -2.0369656050       -2.8090517138        1.4145001977
 C         -1.7000094111       -3.7271181970       -0.4761049819
 C         -0.5580970804       -4.2292571567       -1.3032641244
 C         -0.9976715213       -4.9971616995       -0.0953852137
 H         -1.5121213254       -5.9359115742       -0.2329945488
 H         -0.3575546200       -4.9647705241        0.7734213152
 H         -0.7880769774       -4.6190870862       -2.2831950846
 H          0.3813362303       -3.7016574285       -1.2571131363
 H         -2.6870097012       -3.8309505977       -0.9157514434
