  62
        -98.93367504
 C          2.1482777284        0.6554286775        0.6806385858
 C          2.7977521329        0.3940754485       -0.5481000498
 C          3.5029768729       -0.8976342405       -0.6561094890
 C          3.4676606264       -1.7617159473        0.3750465770
 C          4.0538039905       -3.1491652879        0.5350911079
 C          5.1149728566       -3.6661102980       -0.4329229217
 C          6.4584639875       -2.9415154152       -0.3576536088
 H          6.9320757204       -3.1854941451        0.5966515079
 H          7.0986528989       -3.3266639370       -1.1543225165
 C          6.3949416270       -1.4198689248       -0.4638165948
 H          5.8426577062       -1.0150327773        0.3867228340
 H          7.4169425274       -1.0374690173       -0.3944704962
 C          5.7838190382       -0.8787998795       -1.7549514672
 H          6.3039096109       -1.3049741262       -2.6149951010
 H          5.9467956233        0.2022369591       -1.7677745442
 C          4.2737088726       -1.1201569461       -1.9253318700
 H          4.0736051045       -2.1098173127       -2.3286779883
 H          3.8931862118       -0.3898350366       -2.6454700540
 H          4.7340342710       -3.6572146679       -1.4498631675
 H          5.2906953291       -4.7128839172       -0.1702265591
 H          4.4513507036       -3.1869894524        1.5543170740
 H          3.2010005238       -3.8366073173        0.5118859996
 O          2.7756082864       -1.4860838508        1.5207175583
 C          2.1114874136       -0.2880540816        1.7050901831
 O          1.5277688762       -0.1881466943        2.8046911179
 O          2.7946878531        1.1946465849       -1.5184214805
 C          1.4161345007        1.9673778442        0.9063424580
 C          0.2230950311        2.0378039396       -0.0170758593
 C          0.0380968026        3.0291519660       -0.9697468653
 C         -1.0828266651        3.0142173514       -1.7831929120
 C         -2.0384069604        2.0227961544       -1.6629627642
 C         -1.8685197045        1.0313326678       -0.7038784340
 C         -0.7459446971        1.0488225447        0.1093334181
 H         -0.6087086284        0.2784757475        0.8592218625
 N         -2.8291749825        0.0050923907       -0.5734561198
 S         -4.4393558668        0.4986401396       -0.4112880544
 O         -4.9184082353        0.9247160058       -1.7015345339
 O         -4.5588792424        1.4664009306        0.6575504640
 C         -5.2235056045       -1.0340690830        0.0457082841
 C         -5.5177920838       -1.2783356949        1.3733750656
 C         -6.1124062251       -2.4823413995        1.7173007310
 C         -6.3969292725       -3.4172756996        0.7335103046
 C         -6.0946179195       -3.1575653174       -0.5951602981
 C         -5.5019352278       -1.9552408434       -0.9461408862
 H         -5.2581781805       -1.7062781517       -1.9656237492
 H         -6.3196097950       -3.8864234458       -1.3569711224
 H         -6.8600198921       -4.3530322329        1.0041744722
 H         -6.3510757842       -2.6854043911        2.7489416480
 H         -5.2859387634       -0.5196635239        2.1039017171
 H         -2.5921834364       -0.6202524878        0.1861243453
 H         -2.9167433021        2.0092961233       -2.2872759943
 H         -1.2136921076        3.7879380193       -2.5247815225
 H          0.7720644235        3.8096241394       -1.0824274943
 H          1.0351741599        1.9245143982        1.9372321786
 C          2.3606289617        3.1435071372        0.7870658390
 C          2.0230450419        4.4391945093        1.4592232734
 C          3.1281920779        3.5815762674        1.9966175043
 H          4.1479018592        3.9121864152        1.8682457560
 H          2.9573431911        3.0423422312        2.9173434693
 H          2.2851270413        5.3618122382        0.9640711947
 H          1.0996919083        4.4859886250        2.0169335916
 H          2.8720032265        3.1785670259       -0.1672195021
