  62
        -98.94355947
 C         -1.9539445030       -1.4427616837        0.1743820656
 C         -2.1646945938       -0.4808789518        1.1961718566
 C         -3.1357921302        0.5773530555        0.9026247449
 C         -3.7576032688        0.5958634968       -0.2904380135
 C         -4.8136775005        1.5751931093       -0.7262411097
 C         -4.2610004857        2.8992751014       -1.2702234064
 C         -3.6740404453        3.8386744459       -0.2164166587
 H         -3.5347271669        4.8099319429       -0.6952159085
 H         -4.3957791557        3.9752644459        0.5895194326
 C         -2.3296440207        3.3769238529        0.3627109103
 H         -1.8891039959        2.6224078304       -0.2928158631
 H         -1.6415802755        4.2242696263        0.3900584753
 C         -2.4060000537        2.8119046469        1.7811070862
 H         -2.7057429276        3.6002346808        2.4754564125
 H         -1.4085337112        2.4693138881        2.0682086851
 C         -3.3722713022        1.6314894181        1.9420092094
 H         -3.1984027005        1.1770747859        2.9206669609
 H         -4.4037887617        1.9812541003        1.8989578764
 H         -3.5036409095        2.6776892382       -2.0254310551
 H         -5.0855513668        3.4152514227       -1.7675361631
 H         -5.3795089753        1.0854783172       -1.5217562572
 H         -5.4894679964        1.7765111219        0.1057907255
 O         -3.5047981115       -0.3237517243       -1.2565088603
 C         -2.5910327182       -1.3514518756       -1.0640330176
 O         -2.4611191311       -2.0916312331       -2.0570020332
 H          1.1364405001       -1.4946921592        1.7163270119
 C          1.3532670101       -1.6883006964        0.6741884690
 C          0.3688132663       -2.2499194592       -0.1278224638
 C          0.6465051508       -2.4644245700       -1.4732674432
 C          1.8880665424       -2.1392410194       -1.9898224776
 C          2.8738541518       -1.5969033155       -1.1836975949
 C          2.5999061522       -1.3616933127        0.1571926881
 N          3.5905750748       -0.8118355608        0.9908603812
 S          4.4322434962        0.5365615243        0.4710374123
 O          5.3483585026        0.1577225169       -0.5746293550
 O          5.0232119836        1.0931227699        1.6662974423
 C          3.1871162394        1.6370897840       -0.1733543172
 C          2.4064108849        2.3306026075        0.7302359802
 C          1.4008552319        3.1548216997        0.2540266019
 C          1.1866024602        3.2627010563       -1.1117521469
 C          1.9780233600        2.5589743995       -2.0059469598
 C          2.9897063988        1.7368265710       -1.5354016263
 H          3.6317557954        1.1818165943       -2.1991444063
 H          1.8095019302        2.6465742675       -3.0672959382
 H          0.3993734582        3.9014740266       -1.4803066980
 H          0.7863426524        3.7054055327        0.9481306268
 H          2.6065435935        2.2275408213        1.7848257173
 H          3.2907942674       -0.6930912303        1.9477081830
 H          3.8496918704       -1.3542881732       -1.5716642533
 H          2.0935660605       -2.3147079624       -3.0349858532
 H         -0.1233602589       -2.8643664787       -2.1136198540
 C         -0.9769299053       -2.5672589551        0.4783295061
 H         -0.8587074886       -2.5511585831        1.5704530467
 C         -1.4865197508       -3.9356537640        0.0759639914
 C         -0.8346005335       -5.1499977020        0.6637551836
 C         -2.2215735389       -4.7667550810        1.0824985631
 H         -3.0498161525       -5.3712340947        0.7443864774
 H         -2.3601976841       -4.3523226080        2.0706042756
 H         -0.7073115110       -6.0202123789        0.0385271377
 H         -0.0309502076       -4.9938750474        1.3677460677
 H         -1.8251330908       -3.9919288767       -0.9497430689
 O         -1.5780074294       -0.5177409780        2.3115413958
