  62
        -98.93831647
 C         -1.3083406798       -1.5716642081       -0.5980715299
 C         -2.5165648768       -1.5652359750        0.1410280819
 C         -3.5331278947       -0.5670575812       -0.2302502910
 C         -3.2705605044        0.2949034583       -1.2299992631
 C         -4.1049172992        1.4002993445       -1.8435228366
 C         -5.3760413753        1.8905258065       -1.1560070906
 C         -5.1418095021        2.6380235076        0.1565442140
 H         -4.6697598560        3.5973844140       -0.0708655105
 H         -6.1129868583        2.8439379072        0.6120776093
 C         -4.2565360438        1.9242277163        1.1755740541
 H         -4.1614777332        2.5755673633        2.0490919307
 H         -3.2513957545        1.7966867963        0.7660700070
 C         -4.7757645994        0.5715844919        1.6595129051
 H         -5.7889509266        0.6862522389        2.0500614407
 H         -4.1327394928        0.2493652885        2.4832309049
 C         -4.7784421133       -0.5513244036        0.6086688171
 H         -4.8011549699       -1.5082074864        1.1386048058
 H         -5.6651978228       -0.5033250700       -0.0188864860
 H         -6.0661090067        1.0650012581       -1.0084048102
 H         -5.8570238896        2.5861845208       -1.8491107839
 H         -4.3657959671        1.0526949219       -2.8494452573
 H         -3.4212787300        2.2453900122       -1.9771170149
 O         -2.1002657263        0.2433593076       -1.9261706597
 C         -1.0830716725       -0.6516260553       -1.6213920667
 O         -0.0769448538       -0.5175329073       -2.3411255788
 O         -2.7428354857       -2.3786527100        1.0784494443
 C         -0.2558783588       -2.5724527900       -0.1572072563
 C          0.5633091796       -2.0121491680        0.9806085110
 C          0.9613031553       -2.8158753138        2.0428646379
 C          1.7097501251       -2.2865299837        3.0794781400
 C          2.0639928342       -0.9497909498        3.0834689721
 C          1.6535239067       -0.1313402252        2.0351105314
 C          0.9227443941       -0.6724773886        0.9876095559
 H          0.6004716714       -0.0302652031        0.1850119643
 N          1.9439673565        1.2346373082        2.0513002447
 S          1.9334123668        2.2332098244        0.7177432411
 O          2.4227194594        3.4920430865        1.2404932706
 O          0.6245661486        2.2658561387        0.1155771912
 C          3.1602051050        1.5598192957       -0.3869017488
 C          2.8032675505        0.8860744664       -1.5360194419
 C          3.8085129973        0.3797370250       -2.3478604476
 C          5.1384747165        0.5467383942       -1.9989204678
 C          5.4797257792        1.2267338303       -0.8387400260
 C          4.4834312074        1.7391298783       -0.0260793917
 H          4.7050282110        2.2928300954        0.8717467500
 H          6.5150205296        1.3593272606       -0.5689675359
 H          5.9121103974        0.1471838835       -2.6354617388
 H          3.5345132853       -0.1456742157       -3.2485626618
 H          1.7633283459        0.7500520627       -1.7908986349
 H          2.5650414646        1.5507449197        2.7791741061
 H          2.6345904727       -0.5338422798        3.8993307440
 H          2.0144794360       -2.9196663106        3.8987639820
 H          0.6617590159       -3.8532231880        2.0649323908
 H         -0.8245792411       -3.4272724905        0.2441443063
 C          0.6078565144       -3.0926640447       -1.2967484607
 C          2.0286700418       -2.6710854593       -1.5022684558
 C          1.7241353636       -4.0589420133       -1.0298240823
 H          1.8648842875       -4.8812535108       -1.7146971744
 H          1.9487431951       -4.2953393145       -0.0014651362
 H          2.3640269476       -2.5259494082       -2.5170007570
 H          2.4562504686       -1.9707045175       -0.8011270104
 H          0.0239946459       -3.2618700493       -2.1956057325
