  62
        -98.93936964
 C         -1.7076364903       -1.5993693509       -0.3713537570
 C         -0.6331869570       -1.7365432727       -1.2851335162
 C          0.5380511103       -2.5128073921       -0.8455201311
 C          0.5313142487       -3.0348108915        0.3943747235
 C          1.6449629866       -3.8070036897        1.0458596408
 C          2.7640119115       -2.8898653836        1.5837436344
 C          3.0142691027       -1.6180461056        0.7722971424
 H          2.0666824633       -1.0904937680        0.6483405799
 H          3.6524662121       -0.9608975758        1.3710680797
 C          3.6911558259       -1.8184099929       -0.5834166609
 H          4.7350478972       -2.0934626604       -0.4123632080
 H          3.6793447674       -0.8579411629       -1.1048642255
 C          3.0770931035       -2.8834451438       -1.4891901008
 H          3.6497833471       -2.8875207107       -2.4213956909
 H          3.2060444235       -3.8648830724       -1.0400240178
 C          1.6188473285       -2.6594122759       -1.8872760922
 H          1.5516644500       -1.7529112642       -2.4967274274
 H          1.3151595567       -3.4850753140       -2.5432526405
 H          2.4778309451       -2.5706379117        2.5885610907
 H          3.6870050038       -3.4668648503        1.6607393359
 H          2.0347211733       -4.5354735104        0.3390279324
 H          1.2094417921       -4.3538883820        1.8846358679
 O         -0.5147421340       -2.8783828000        1.2466563295
 C         -1.6461614369       -2.1453965037        0.9115616998
 O         -2.4917120729       -2.0935490319        1.8231677355
 O         -0.6538972526       -1.2156653591       -2.4347311137
 C         -2.8620555194       -0.7307568180       -0.8463811053
 C         -2.4469474834        0.7187959641       -0.7729052756
 C         -2.7386289111        1.6153747929       -1.7940935066
 C         -2.3048597942        2.9274942208       -1.7213448041
 C         -1.5402006947        3.3587192835       -0.6516634771
 C         -1.2361999574        2.4673575543        0.3706165955
 C         -1.7200830846        1.1684254333        0.3197969084
 H         -1.4857061804        0.4882780258        1.1248997492
 N         -0.4197474331        2.8439809942        1.4555475259
 S          0.9663652454        1.9403534329        1.7321305728
 O          0.6175200094        0.5822523254        2.0538681503
 O          1.6888480785        2.6782439209        2.7453513979
 C          1.8656084841        2.0127948516        0.1928282227
 C          1.4499750026        1.2344149287       -0.8688470905
 C          2.1139441303        1.3439916604       -2.0804633523
 C          3.1811704575        2.2192048195       -2.2094180891
 C          3.5906058181        2.9905878244       -1.1320166671
 C          2.9237320111        2.8937077038        0.0785538644
 H          3.2056273968        3.4735466550        0.9425184575
 H          4.4230741316        3.6680760175       -1.2328875309
 H          3.6957095179        2.2970070170       -3.1541420637
 H          1.7799543700        0.7424348733       -2.9114615430
 H          0.6228541931        0.5528358594       -0.7475766505
 H         -0.1874553880        3.8277166295        1.4705604239
 H         -1.1731582769        4.3729700450       -0.6099384193
 H         -2.5414177546        3.6156756840       -2.5181731238
 H         -3.2899659851        1.2731642003       -2.6572315958
 H         -2.9945529795       -0.9747711771       -1.9136112771
 C         -4.1854854505       -0.9993233466       -0.1506650080
 C         -4.7312492508       -0.1150806511        0.9258611102
 C         -5.3762672042       -0.1291553567       -0.4257824393
 H         -6.3420193349       -0.5992936561       -0.5316051375
 H         -5.2321331399        0.7362988215       -1.0542191485
 H         -5.2334136317       -0.5890593540        1.7550726454
 H         -4.1540652237        0.7513493156        1.2110558740
 H         -4.3738594484       -2.0614124491       -0.0369388420
