  62
        -98.92695841
 C          2.3262067466        0.7574425399        0.6016158054
 C          3.7088824539        1.0909297739        0.5531322467
 C          4.6785122759       -0.0167245384        0.5581051566
 C          4.2336417903       -1.2718893728        0.7272840866
 C          5.0178142142       -2.5586459353        0.7903731352
 C          6.1977657039       -2.7190074128       -0.1759757797
 C          5.9932437556       -2.0809995848       -1.5579414493
 H          6.2063463349       -2.8251331137       -2.3276244936
 H          4.9519475812       -1.7771321435       -1.6780359403
 C          6.9064487025       -0.8771312028       -1.8013820520
 H          7.9063995595       -1.1153527488       -1.4325808210
 H          6.9866110282       -0.7089317403       -2.8780209394
 C          6.4398608075        0.4344275475       -1.1711199591
 H          5.5476776129        0.7966688530       -1.6891410176
 H          7.2243955410        1.1792722240       -1.3244387916
 C          6.1125938404        0.3661396612        0.3293105684
 H          6.2226417642        1.3714525074        0.7448621920
 H          6.7943569843       -0.3002150235        0.8518335817
 H          6.3659505387       -3.7913512699       -0.2903155794
 H          7.0984878911       -2.3075914962        0.2770313032
 H          5.3748119065       -2.6874198550        1.8166139680
 H          4.2836047844       -3.3475346993        0.6078747091
 O          2.9143834104       -1.5355962192        0.9316328795
 C          1.9372510953       -0.5453684836        0.9194156461
 O          0.8111766256       -0.9854273950        1.2242409216
 O          4.1285590238        2.2782728701        0.5228273106
 C          1.3440847111        1.9253353563        0.5209637053
 C         -0.1101368113        1.5877620880        0.6843000796
 C         -0.8760765530        2.2584628562        1.6305094797
 C         -2.2312461036        2.0075994385        1.7548135529
 C         -2.8499645537        1.0773118910        0.9409372223
 C         -2.0920880110        0.3860977123        0.0050402633
 C         -0.7387811821        0.6587767650       -0.1335318726
 H         -0.1588156851        0.0971945195       -0.8524168023
 N         -2.7088387818       -0.5662490824       -0.8244374852
 S         -3.8088649375       -1.6421018997       -0.1535804749
 O         -3.5372280605       -1.9200034103        1.2369038729
 O         -3.8091094725       -2.7781480245       -1.0507571155
 C         -5.3683843929       -0.7918877074       -0.3070368021
 C         -6.1860642568       -0.6546053013        0.7976658749
 C         -7.4004868304       -0.0009588044        0.6571032883
 C         -7.7749047602        0.5003907513       -0.5799861788
 C         -6.9443312932        0.3513929066       -1.6807232845
 C         -5.7296527039       -0.3019988804       -1.5468816198
 H         -5.0578102324       -0.4411360819       -2.3772174945
 H         -7.2388356738        0.7423340273       -2.6413269888
 H         -8.7194799610        1.0099567721       -0.6867490954
 H         -8.0472164401        0.1143974305        1.5120613054
 H         -5.8503368171       -1.0559182028        1.7408641885
 H         -2.0577808122       -1.0618175879       -1.4162729298
 H         -3.9016723883        0.8640700795        1.0395138734
 H         -2.8102244643        2.5384887347        2.4949803128
 H         -0.3994563552        2.9785778895        2.2805452710
 H          1.6297574827        2.6049356681        1.3427786062
 C          1.5682077421        2.7421167098       -0.7588391837
 C          0.7435358013        2.6543451423       -2.0044431016
 C          0.6433587683        3.8634751183       -1.1251334361
 H          1.0709044616        4.7943946636       -1.4651511391
 H         -0.2587042747        3.9761888844       -0.5423666651
 H          1.2601512133        2.7443816142       -2.9490756817
 H         -0.1050008561        1.9901339735       -2.0326775348
 H          2.6228198047        2.9392402611       -0.9048077234
