  62
        -98.94185495
 C          0.8264124759        1.3387424530        0.4767009152
 C          1.2580163012        0.7076463500       -0.7116797367
 C          2.2111419899       -0.4056397881       -0.5498971541
 C          2.5157591589       -0.8268396710        0.6895877307
 C          3.4923721113       -1.9016034158        1.0835067369
 C          4.8736188284       -1.2950149921        1.3853091677
 C          5.7882366622       -1.1465744041        0.1699971503
 H          6.6728305747       -0.5943219552        0.4953969779
 H          6.1203897785       -2.1358374166       -0.1517021044
 C          5.1695552752       -0.4229408077       -1.0288325781
 H          4.6109545529        0.4485676245       -0.6824568120
 H          5.9852888460       -0.0555870964       -1.6545233742
 C          4.2587297097       -1.3247064516       -1.8755718654
 H          4.5625709248       -1.2629109127       -2.9224702720
 H          4.4023418502       -2.3615642937       -1.5732447041
 C          2.7657432125       -0.9712156276       -1.8283135016
 H          2.1786756831       -1.8517708132       -2.1034216400
 H          2.5479301348       -0.2090005973       -2.5829113487
 H          4.7170195152       -0.3186961019        1.8514421803
 H          5.3821468643       -1.9266001266        2.1167410088
 H          3.1053243001       -2.3538236227        1.9994602880
 H          3.5643882613       -2.6647294149        0.3143209640
 O          1.9820135305       -0.2610537859        1.8096799180
 C          1.1692564246        0.8546162346        1.7378568085
 O          0.8186185258        1.3129094762        2.8452592129
 O          0.8908225540        1.0701130826       -1.8594083891
 C         -0.0513743676        2.5745768267        0.4028581013
 C         -1.3526450231        2.2495229384       -0.2882490446
 C         -1.8572368820        2.9750783284       -1.3590603875
 C         -3.0673807903        2.6239993622       -1.9319322146
 C         -3.7987158155        1.5562960407       -1.4468931543
 C         -3.3082082375        0.8320504883       -0.3648721014
 C         -2.0914455295        1.1778362694        0.1997573728
 H         -1.7184526416        0.6177642645        1.0455546163
 N         -4.0515983422       -0.2265221065        0.1728462273
 S         -3.3489371821       -1.4986707801        0.9765008772
 O         -4.3966051462       -2.4977653313        1.0246624133
 O         -2.8313231331       -1.0752341974        2.2534450575
 C         -2.0343096180       -2.1163487418       -0.0580323910
 C         -2.2966295882       -2.3577076468       -1.3921751686
 C         -1.3173853220       -2.9489917666       -2.1725367152
 C         -0.1044020091       -3.3051569616       -1.6041986191
 C          0.1481550815       -3.0484271995       -0.2660458191
 C         -0.8227109808       -2.4418600738        0.5145882236
 H         -0.6620593337       -2.2176163210        1.5582190523
 H          1.0923849700       -3.3203614087        0.1767935146
 H          0.6458229999       -3.7928848839       -2.2069485317
 H         -1.5056371899       -3.1397152165       -3.2166970340
 H         -3.2577366345       -2.0940781690       -1.8020012385
 H         -4.8761614102       -0.4939443072       -0.3425966969
 H         -4.7447249782        1.2871336712       -1.8907106258
 H         -3.4460435334        3.1908851629       -2.7686497096
 H         -1.3026445644        3.8121290626       -1.7489318122
 H         -0.2850720410        2.8412521740        1.4444703141
 C          0.7119439648        3.7172215591       -0.2345229195
 C          0.3675256504        5.1352280360        0.1047121625
 C          1.6396407627        4.5299864599        0.6156411715
 H          2.5762317811        4.8580538032        0.1902173599
 H          1.7026779723        4.2753096761        1.6640706987
 H          0.4337393284        5.8830338536       -0.6709581310
 H         -0.4332351786        5.2997282050        0.8098539245
 H          1.0300805486        3.4935853380       -1.2460858489
