  62
        -98.94045808
 C         -1.5118862535       -1.1775152940        0.0377935981
 C         -2.5517140235       -0.9071034014        0.9610988143
 C         -3.3124418042        0.3370600723        0.7554214895
 C         -2.9629374814        1.1543688291       -0.2527605216
 C         -3.6237663934        2.4422141008       -0.6599010795
 C         -4.6738687262        2.1905123664       -1.7554485744
 C         -6.0677494026        1.8318189121       -1.2419599139
 H         -6.5248166196        2.7175776848       -0.7957220435
 H         -6.6718385564        1.5540075340       -2.1088534009
 C         -6.1165653000        0.6903979953       -0.2227925451
 H         -5.4523783710       -0.1155341382       -0.5403967217
 H         -7.1317685099        0.2886734805       -0.2190904376
 C         -5.7538744284        1.1368415758        1.2014872618
 H         -6.5303909206        0.8032201567        1.8929712385
 H         -5.7511834515        2.2258499308        1.2434414004
 C         -4.4211572319        0.5948755451        1.7388214221
 H         -4.0483600808        1.2704288528        2.5158832801
 H         -4.5911379900       -0.3714836906        2.2238615651
 H         -4.7616683860        3.0886188917       -2.3702692428
 H         -4.3016571160        1.3895055550       -2.3994414828
 H         -4.0636683735        2.9391601261        0.1994250808
 H         -2.8403668938        3.0810382814       -1.0730384073
 O         -1.9412230937        0.8682558694       -1.1045783512
 C         -1.1996163407       -0.2968282539       -0.9970864514
 O         -0.3177894918       -0.4137359613       -1.8693171510
 O         -2.8382846266       -1.6785139756        1.9149712129
 C         -0.6885734906       -2.4399110671        0.2408251078
 C          0.6870890676       -2.0051050299        0.6793093780
 C          0.9165560672       -1.7017444560        2.0186280313
 C          2.1356521808       -1.1963913494        2.4306114785
 C          3.1424623362       -0.9551130000        1.5116016028
 C          2.9156790616       -1.2413054769        0.1722336528
 C          1.7069777510       -1.7891505379       -0.2341680533
 H          1.5469073755       -1.9989977547       -1.2794252811
 N          3.9064100044       -0.9318942371       -0.7784784396
 S          4.5708473009        0.6017394379       -0.6695306049
 O          4.9166193612        0.9720955671       -2.0245323824
 O          5.6707624836        0.5762632490        0.2642909084
 C          3.2839013097        1.6666358793       -0.0335949742
 C          2.0515786206        1.6801342722       -0.6560025557
 C          1.0575477904        2.5033280452       -0.1520316817
 C          1.3083188867        3.2984628068        0.9550648404
 C          2.5537236309        3.2792860918        1.5637473208
 C          3.5507266216        2.4550660857        1.0679255171
 H          4.5295721353        2.4012714035        1.5162878722
 H          2.7480026759        3.8989686984        2.4243099775
 H          0.5276127527        3.9333634660        1.3437396270
 H          0.0886035542        2.5027050885       -0.6264960600
 H          1.8549803570        1.0480051901       -1.5077915264
 H          3.6182357220       -1.1239363513       -1.7275143845
 H          4.0928756237       -0.5412859386        1.8080582220
 H          2.3012185761       -0.9742439933        3.4736250197
 H          0.1179514701       -1.8523957363        2.7312107156
 H         -1.1665861528       -2.9699142834        1.0748800959
 C         -0.6939710214       -3.3395425307       -0.9766158500
 C         -0.2043617210       -4.7497986761       -0.8436535151
 C         -1.6647668747       -4.4787828116       -1.0408824812
 H         -2.1110208047       -4.7217327028       -1.9936775168
 H         -2.3288665472       -4.6182326335       -0.2005310746
 H          0.3540617321       -5.1825391234       -1.6596258164
 H          0.1248927418       -5.0709975711        0.1329606206
 H         -0.4884024009       -2.8172755045       -1.9029447633
