  62
        -98.94046534
 C         -2.3585130907       -0.7755210247       -0.1566580649
 C         -3.5773723317       -1.1136323513        0.4787300270
 C         -4.7901100826       -0.5210811043       -0.1000028840
 C         -4.6813629563        0.2741673778       -1.1801759536
 C         -5.8273221608        0.9845244337       -1.8395186349
 C         -6.0266904124        2.3862408408       -1.2461679778
 C         -6.0669675129        2.4094808714        0.2817967859
 H         -5.0862685985        2.1219802465        0.6678775331
 H         -6.2412904911        3.4435744557        0.5867379774
 C         -7.1412233286        1.5054216853        0.9024708266
 H         -7.6505822433        2.0596521261        1.6936241671
 H         -7.8900348701        1.2507979336        0.1516820357
 C         -6.6022106548        0.2212551597        1.5355954095
 H         -7.4039322934       -0.2285562915        2.1272722742
 H         -5.7871798152        0.4650630722        2.2218007535
 C         -6.1025412730       -0.8479407795        0.5556054223
 H         -5.9320199804       -1.7665630703        1.1245695553
 H         -6.8697348904       -1.0465439712       -0.1953288003
 H         -6.9554736023        2.8000112828       -1.6429873919
 H         -5.2018922383        3.0219224903       -1.5764191554
 H         -6.7330268238        0.3938993885       -1.7167275345
 H         -5.6063146035        1.0782772453       -2.9039808717
 O         -3.4944031133        0.5637789731       -1.7722434394
 C         -2.3024524181        0.0603625791       -1.2717611553
 O         -1.2897789899        0.4223936210       -1.9000495459
 O         -3.6464602972       -1.8705018539        1.4846298594
 C         -1.0635706177       -1.3439170924        0.3946956728
 C         -0.1380994345       -0.2248713053        0.8031892211
 C         -0.6071721782        0.7383627746        1.6940683589
 C          0.2023755995        1.7809348741        2.0990132627
 C          1.5019700924        1.8807771824        1.6332888692
 C          1.9789256974        0.9277927872        0.7419942425
 C          1.1612041049       -0.1185210073        0.3356009933
 H          1.5595538305       -0.8427615792       -0.3545231257
 N          3.2823038186        1.0209406425        0.2285667018
 S          4.1421047048       -0.3975528547       -0.0797321034
 O          3.7528786427       -0.9206487522       -1.3647213293
 O          4.0232922543       -1.3026133881        1.0416111121
 C          5.7990676119        0.2556605717       -0.1760692812
 C          6.1954041811        0.8769107262       -1.3455670865
 C          7.4699070612        1.4157882658       -1.4190751993
 C          8.3222197800        1.3253470734       -0.3283575302
 C          7.9113058734        0.6971146177        0.8375760213
 C          6.6371521397        0.1571802031        0.9184166057
 H          6.2770970256       -0.3468486467        1.8008282952
 H          8.5773978036        0.6256913342        1.6822706075
 H          9.3139513203        1.7449622495       -0.3889099715
 H          7.7935477262        1.9026310115       -2.3248778257
 H          5.5014069833        0.9150651985       -2.1691785898
 H          3.8493073104        1.7019249832        0.7149090373
 H          2.1368396533        2.6942452293        1.9500930530
 H         -0.1769905411        2.5194448784        2.7893617324
 H         -1.6206672079        0.6551862584        2.0631908057
 H         -1.3496742518       -1.8968530471        1.3023767388
 C         -0.4453456813       -2.3153368037       -0.5875657266
 C          0.4804484719       -3.3877352934       -0.0992968762
 C         -0.8915845030       -3.7453514023       -0.5842511220
 H         -0.9881183436       -4.2574095229       -1.5297892390
 H         -1.6337434728       -4.0312298457        0.1467728518
 H          1.3333413463       -3.6469911822       -0.7091207882
 H          0.6762579541       -3.4325264968        0.9616888724
 H         -0.2323519248       -1.8601161723       -1.5490449190
