  62
        -98.93582577
 C         -2.2407423147       -0.1774032604        0.3520744523
 C         -3.3503686922       -0.7549615448       -0.3152295897
 C         -4.4379203442        0.1733402950       -0.6613130492
 C         -4.3211648663        1.4841931874       -0.3882261218
 C         -5.3314707663        2.5521053257       -0.7093356082
 C         -6.4509917622        2.6853972315        0.3322783065
 C         -7.4786288813        1.5528628963        0.3318894634
 H         -8.3158388465        1.8804596908        0.9513801505
 H         -7.8586745829        1.4094084203       -0.6799742981
 C         -6.9516596911        0.2192423393        0.8798850253
 H         -6.0339080388        0.3956067379        1.4459686597
 H         -7.6804627538       -0.2019177382        1.5761287268
 C         -6.6786913749       -0.8407355895       -0.1873069861
 H         -6.2749698530       -1.7282747652        0.3064226559
 H         -7.6159956893       -1.1219901901       -0.6722826506
 C         -5.6808711997       -0.4052303467       -1.2682001588
 H         -5.3896912144       -1.2883829258       -1.8417800050
 H         -6.1457403733        0.3137814803       -1.9420997792
 H         -5.9975456034        2.7664724193        1.3229893056
 H         -6.9744814188        3.6224975862        0.1291739464
 H         -4.7828019622        3.4956100004       -0.7482750874
 H         -5.7665848773        2.3619988404       -1.6908600921
 O         -3.2206765058        2.0075012571        0.2177340025
 C         -2.1768535506        1.1924137657        0.6209687744
 O         -1.2561216767        1.7991954387        1.2078583056
 O         -3.4487529326       -1.9702688730       -0.6188092720
 C         -1.0441989283       -0.9859924393        0.8254272698
 C         -0.0070068597       -1.1121383004       -0.2612821617
 C         -0.3489445630       -1.5331653501       -1.5429042922
 C          0.6191238240       -1.6410149122       -2.5241121125
 C          1.9394115886       -1.3316162740       -2.2494250227
 C          2.2935000335       -0.9179394812       -0.9702010394
 C          1.3189636239       -0.8095734156        0.0126235635
 H          1.6015045704       -0.4646423314        0.9959736555
 N          3.6376378714       -0.6499147390       -0.6581922655
 S          4.0063654242        0.5811597049        0.4372518689
 O          3.7516984398        0.1036128329        1.7729275910
 O          3.3479383414        1.8083855466        0.0492683060
 C          5.7653892227        0.7097916345        0.1743558143
 C          6.2647497232        1.7273966831       -0.6160210388
 C          7.6321236323        1.7985262264       -0.8326153262
 C          8.4715391357        0.8543457047       -0.2609418065
 C          7.9555692394       -0.1608680970        0.5310853519
 C          6.5898925489       -0.2368492674        0.7529702488
 H          6.1446059326       -1.0010795297        1.3681659396
 H          8.6116441276       -0.8913807966        0.9761470361
 H          9.5349879098        0.9119527676       -0.4312290436
 H          8.0361616188        2.5887350996       -1.4446499163
 H          5.5744121822        2.4434745236       -1.0324391345
 H          4.2183421776       -0.5816472263       -1.4835326489
 H          2.6923868244       -1.4132575509       -3.0186092972
 H          0.3416758188       -1.9657565490       -3.5156992163
 H         -1.3775895447       -1.7792922871       -1.7572308848
 H         -0.5941653360       -0.3873571410        1.6346994204
 C         -1.4361116701       -2.3307431324        1.4255112874
 C         -1.1145423669       -3.6474509011        0.7920904190
 C         -0.3794380377       -3.2131704968        2.0219421149
 H         -0.5877374157       -3.7100430253        2.9574692775
 H          0.6476253784       -2.8976994260        1.9087491079
 H         -1.8507685926       -4.4321095297        0.8749845141
 H         -0.5839504252       -3.6462066201       -0.1465706119
 H         -2.3786229071       -2.2728657747        1.9606928912
