  62
        -98.94314656
 C         -1.8985858253       -1.1427868179        0.3418553894
 C         -2.4555270371       -0.1288908363        1.1644088764
 C         -3.8648163820        0.1997990525        0.9270383468
 C         -4.5559491031       -0.4724645149       -0.0109768661
 C         -6.0066528655       -0.2741484936       -0.3572244827
 C         -6.2611503361        0.8726069147       -1.3449154357
 C         -6.0891474336        2.2780768061       -0.7674516640
 H         -6.6775458067        2.3692406694        0.1460663658
 H         -6.5066984231        2.9770117069       -1.4949021448
 C         -4.6326822545        2.6730066551       -0.4849863211
 H         -4.4471339466        3.6797048255       -0.8663639702
 H         -3.9602405786        1.9999398614       -1.0222893563
 C         -4.2506178491        2.6736995052        0.9954351335
 H         -4.8227599104        3.4412655678        1.5216046430
 H         -3.1907694765        2.9304449801        1.0755375319
 C         -4.4674317947        1.3304665013        1.7046666851
 H         -5.5313985158        1.1576355860        1.8660316379
 H         -3.9672840492        1.3709119446        2.6755434069
 H         -7.2888969103        0.7732791797       -1.7015087949
 H         -5.5974527254        0.7481177023       -2.2036217181
 H         -6.5809919458       -0.1053597713        0.5540944844
 H         -6.3464006503       -1.2052352161       -0.8157791821
 O         -3.9964375868       -1.4567158662       -0.7593889482
 C         -2.6579757572       -1.8029491518       -0.6250326107
 O         -2.3002342772       -2.7032725304       -1.4076628902
 O         -1.8058693290        0.4670057197        2.0656551172
 C         -0.4297454497       -1.4742471129        0.5541424284
 C          0.4070933867       -0.8312771384       -0.5262456121
 C          0.4832704710       -1.3580083813       -1.8120319358
 C          1.2347905325       -0.7241260809       -2.7840883061
 C          1.9394912986        0.4307411080       -2.4924286795
 C          1.8685587495        0.9671475212       -1.2128994962
 C          1.1019588472        0.3369283154       -0.2420365172
 H          1.0399487750        0.7775212841        0.7422628709
 N          2.5748021174        2.1398370293       -0.8843103961
 S          3.5803767302        2.1056414401        0.4548102981
 O          2.8009514743        2.0897963198        1.6651936102
 O          4.4671073637        3.2343609341        0.2771671763
 C          4.4859445165        0.5801740232        0.2739968406
 C          5.5743834067        0.5600006013       -0.5763070177
 C          6.2375294959       -0.6375418383       -0.7884299869
 C          5.7957531608       -1.7911055030       -0.1582824866
 C          4.7024256024       -1.7543143047        0.6930703565
 C          4.0383917168       -0.5579205644        0.9133869462
 H          3.1878554325       -0.4849391342        1.5716709263
 H          4.3606821285       -2.6521223744        1.1830194384
 H          6.3072448773       -2.7251904932       -0.3286261546
 H          7.0918012174       -0.6690844809       -1.4453028368
 H          5.8892524000        1.4811594882       -1.0394766560
 H          3.0585874253        2.5557579680       -1.6678665697
 H          2.5310832532        0.9203883992       -3.2511547974
 H          1.2783885635       -1.1384832375       -3.7798363109
 H         -0.0780048176       -2.2468013870       -2.0514941019
 H         -0.1679059011       -0.9919882553        1.5061930402
 C         -0.1656938326       -2.9606662253        0.6813900541
 C          1.0824058692       -3.4193919285        1.3713218597
 C         -0.2499157829       -3.6019746541        2.0326436371
 H         -0.6616881814       -4.5973868258        2.1048878063
 H         -0.4946436394       -2.9678351442        2.8727258558
 H          1.5909602433       -4.2911356237        0.9899535482
 H          1.7386431774       -2.6590741998        1.7669501197
 H         -0.5214076481       -3.5397313872       -0.1600980596
