  62
        -98.93471272
 C         -1.7238732388       -0.2554784468        1.2421690973
 C         -1.9119465993       -0.2339612529       -0.1602170602
 C         -3.2923035622       -0.4472419117       -0.6407310802
 C         -4.2889115884       -0.6189989212        0.2463609597
 C         -5.7644413162       -0.8976826153        0.0490215262
 C         -6.4249958409       -0.6840841422       -1.3105282809
 C         -6.4940672442        0.7727533598       -1.7672296980
 H         -6.8923178483        0.7930252908       -2.7840565921
 H         -7.1987741808        1.3057464231       -1.1238206047
 C         -5.1731926521        1.5378686319       -1.7357950847
 H         -5.3684836449        2.5557837336       -2.0842760701
 H         -4.8181430915        1.6150529542       -0.7059726235
 C         -4.0584429066        0.9560650210       -2.6029489974
 H         -3.2377504946        1.6785034168       -2.6104445246
 H         -4.4133016388        0.8416321817       -3.6290530300
 C         -3.4828124237       -0.3897427085       -2.1289850270
 H         -2.4881778665       -0.5030054092       -2.5697481221
 H         -4.0907285300       -1.2236610183       -2.4715498293
 H         -7.4515524569       -1.0489860993       -1.2172137193
 H         -5.9411126714       -1.2969146061       -2.0652929119
 H         -5.9115245531       -1.9426190235        0.3442712025
 H         -6.2834565086       -0.2912294827        0.7981542038
 O         -4.0605306859       -0.6054747599        1.5932911229
 C         -2.7973626598       -0.4087242766        2.1205688652
 O         -2.7624728333       -0.3837367874        3.3673296338
 O         -0.9832608187       -0.0567022054       -0.9887975012
 C         -0.3578997914       -0.0339187776        1.8679158800
 C          0.3379589510        1.1214795257        1.1921241592
 C         -0.2713103695        2.3738593036        1.2205121055
 C          0.3219245639        3.4624061912        0.6129419857
 C          1.5468512249        3.3307546974       -0.0180809946
 C          2.1641207378        2.0871101052       -0.0497165310
 C          1.5571346164        0.9911794767        0.5482039508
 H          2.0412878993        0.0312723907        0.4902679275
 N          3.3940026250        1.9137589467       -0.6989296944
 S          4.5356777947        0.8648291428       -0.0805663458
 O          4.5101682930        0.8366340432        1.3639249744
 O          5.7830595573        1.2908128732       -0.6803100585
 C          4.1057059582       -0.7343812959       -0.7338312367
 C          4.3083710880       -1.8510137957        0.0527866079
 C          4.0227868062       -3.1022058762       -0.4709169163
 C          3.5411513467       -3.2138334897       -1.7661857663
 C          3.3427304533       -2.0823242192       -2.5423894823
 C          3.6311614738       -0.8290709570       -2.0266573816
 H          3.4839172953        0.0695576797       -2.6019279231
 H          2.9625568030       -2.1724674065       -3.5471629005
 H          3.3157376515       -4.1879720896       -2.1707481034
 H          4.1750201100       -3.9831704759        0.1326120951
 H          4.6725468913       -1.7176736921        1.0592189929
 H          3.8075547300        2.7531368501       -1.0765882718
 H          2.0160671415        4.1812557858       -0.4891838014
 H         -0.1672984145        4.4248098047        0.6365585417
 H         -1.2262776653        2.4775321284        1.7189284899
 H         -0.5670236293        0.2679176393        2.9083012776
 C          0.5011466320       -1.2871844229        1.9450604432
 C         -0.1246259211       -2.6380866779        2.1185618005
 C          0.5584162330       -2.2882646849        0.8322631022
 H          1.5085130112       -2.7520641538        0.6110337172
 H         -0.0468896653       -2.0991932112       -0.0395453096
 H          0.3534430461       -3.3415746162        2.7834246406
 H         -1.2037697454       -2.6902989888        2.1310829925
 H          1.4232326490       -1.1103009504        2.4919461609
