  62
        -98.94298344
 C          2.6828863947        1.2043936287        0.1376244615
 C          2.6996254854        0.2198341885       -0.8792285103
 C          3.8876384428       -0.6455337265       -0.9092009519
 C          4.8722630420       -0.4466761321       -0.0139595878
 C          6.1066694293       -1.2918332677        0.1048810587
 C          5.8943560616       -2.4456531897        1.0951823321
 C          4.6085173391       -3.2372685331        0.8559062600
 H          4.5806583983       -4.0420604857        1.5937371884
 H          3.7494255827       -2.5916591749        1.0526755117
 C          4.4814655443       -3.8314262348       -0.5537893352
 H          5.4601847200       -3.8573322570       -1.0342612577
 H          4.1347725724       -4.8633975647       -0.4685011942
 C          3.4899375268       -3.1024804986       -1.4626555220
 H          2.5325807832       -2.9907099832       -0.9471125879
 H          3.3162472974       -3.7250501274       -2.3443750904
 C          3.9325654925       -1.7201346097       -1.9586715520
 H          4.9288834602       -1.7881383928       -2.4001018405
 H          3.2312162808       -1.4066135769       -2.7374351912
 H          6.7535275679       -3.1160214357        1.0332071605
 H          5.8584397119       -2.0319473507        2.1057068850
 H          6.3685679577       -1.6840491535       -0.8757948181
 H          6.9220514981       -0.6617933859        0.4641895894
 O          4.8309611146        0.5281731094        0.9305730161
 C          3.7330083701        1.3650636953        1.0410757946
 O          3.8088538436        2.1967516925        1.9683828500
 H         -0.9174353843        2.1535147196       -1.0952146274
 C         -0.9007821169        1.4449031550       -0.2818960471
 C          0.2369693089        1.3110277475        0.4964041068
 C          0.2205309985        0.3923264993        1.5432669863
 C         -0.8972356601       -0.3803890705        1.7891525719
 C         -2.0257635669       -0.2563994082        0.9967730600
 C         -2.0256263660        0.6639036280       -0.0410718663
 N         -3.1620463335        0.7897850319       -0.8547972129
 S         -4.6750164048        0.8924470508       -0.1417100180
 O         -5.5045457167        1.5656814502       -1.1171473504
 O         -4.6034402051        1.4993348290        1.1672376117
 C         -5.2041473361       -0.8019553940       -0.0023983679
 C         -5.1911652047       -1.5855775069       -1.1395501836
 C         -5.6115236407       -2.9028353418       -1.0488997951
 C         -6.0383581284       -3.4105417580        0.1692648411
 C         -6.0489225223       -2.6098439547        1.3010421182
 C         -5.6287278052       -1.2914721714        1.2172465857
 H         -5.6145539776       -0.6338289271        2.0719034523
 H         -6.3815787294       -3.0061804192        2.2469913923
 H         -6.3648963001       -4.4362983466        0.2367355716
 H         -5.6042001303       -3.5287805569       -1.9267761301
 H         -4.8543108357       -1.1542282551       -2.0674122821
 H         -3.0612407355        1.4568424468       -1.6056814301
 H         -2.8994624284       -0.8600712846        1.1799965339
 H         -0.8911330072       -1.0899074743        2.6028924452
 H          1.1031463879        0.2936717396        2.1614475143
 C          1.4862145969        2.1289301318        0.2740816206
 H          1.6646565347        2.7262985258        1.1801361423
 C          1.4085246058        3.0633047424       -0.9149186755
 C          0.7345723011        4.3952460035       -0.7822443344
 C          2.2264097641        4.3181175831       -0.9024315601
 H          2.6878224304        4.6424900114       -1.8230649329
 H          2.8237451842        4.5116141067       -0.0232572008
 H          0.1734419931        4.7779587428       -1.6217999788
 H          0.3150987441        4.6497655329        0.1796179431
 H          1.3209926541        2.5345213661       -1.8572135515
 O          1.7733946195        0.0691958675       -1.7178194950
