  62
        -98.94392054
 C         -1.8821606978       -0.4845752610        0.9036153634
 C         -2.2058847871        0.4723548397       -0.0880794882
 C         -3.6380711810        0.7547079570       -0.2534305217
 C         -4.5386929517        0.1381175777        0.5333591169
 C         -6.0292703540        0.3422095694        0.5029992677
 C         -6.7530151220       -0.4950719824       -0.5603445245
 C         -6.5474935211       -0.0321110458       -2.0031577471
 H         -7.2765000172       -0.5641832884       -2.6175360737
 H         -6.7737648471        1.0319557602       -2.0780532198
 C         -5.1427126742       -0.3015751304       -2.5604113197
 H         -4.6368438974       -1.0395691822       -1.9336660601
 H         -5.2238644837       -0.7331366944       -3.5606059410
 C         -4.2569124312        0.9393342538       -2.6739075391
 H         -4.6863063737        1.6315902665       -3.4017222052
 H         -3.2760324526        0.6291020978       -3.0436782073
 C         -4.0472261166        1.6890304079       -1.3516575681
 H         -4.9536955733        2.2283277249       -1.0769993001
 H         -3.2380777199        2.4106006395       -1.4909775925
 H         -7.8213995883       -0.4523393673       -0.3366328097
 H         -6.4340326481       -1.5352179150       -0.4625423027
 H         -6.4029096670        0.0473291312        1.4859339503
 H         -6.2512706672        1.3985710270        0.3492324369
 O         -4.1821647270       -0.7557828704        1.4939697105
 C         -2.8547778255       -1.1015045655        1.6902334954
 O         -2.6709471807       -1.9473162280        2.5890018257
 O         -1.3488535917        1.0643066888       -0.7949087697
 C         -0.4338105063       -0.8728179616        1.1382970226
 C          0.3961884686        0.3489638227        1.4471004361
 C         -0.0733305799        1.2604776670        2.3896149057
 C          0.6556856028        2.3902395280        2.7037163488
 C          1.8710461847        2.6336681897        2.0884851403
 C          2.3578675094        1.7228287183        1.1589603325
 C          1.6259772146        0.5832351286        0.8514182084
 H          2.0164027720       -0.1041604296        0.1200896695
 N          3.6115790326        1.9205182623        0.5681489148
 S          3.9907482550        1.3567622704       -0.9564887192
 O          5.1956466392        2.0812149526       -1.3054621573
 O          2.8926241921        1.4781635658       -1.8852584538
 C          4.4088271750       -0.3570273579       -0.7111002114
 C          5.0895914019       -0.7303303202        0.4308206684
 C          5.4499039813       -2.0588553592        0.5904010349
 C          5.1355564013       -2.9854027358       -0.3919896902
 C          4.4572006006       -2.5936920063       -1.5357642468
 C          4.0883502459       -1.2672165902       -1.6986115420
 H          3.5473160706       -0.9216161502       -2.5655502700
 H          4.2134945126       -3.3146305648       -2.3002370376
 H          5.4180908234       -4.0185936342       -0.2661181207
 H          5.9757311100       -2.3676558424        1.4794225355
 H          5.3192321811        0.0146439736        1.1739236723
 H          4.0511920825        2.8064749974        0.7676575103
 H          2.4378796894        3.5211202806        2.3253818100
 H          0.2731388813        3.0922966418        3.4294365760
 H         -1.0269518346        1.0741789196        2.8652942060
 H         -0.4349461969       -1.5177055199        2.0297093372
 C          0.0870221905       -1.6735880277       -0.0373940728
 C          1.1279876855       -2.7303540091        0.1747198861
 C         -0.2831731747       -3.1214603604       -0.1432825358
 H         -0.5007192889       -3.5278565210       -1.1196213434
 H         -0.8938544915       -3.5332340491        0.6472624989
 H          1.8838255857       -2.8697060030       -0.5831980839
 H          1.4812529142       -2.8862384448        1.1826576077
 H          0.1196247471       -1.0949819568       -0.9545140978
