  62
        -98.94529968
 C          2.1422743516        0.8793879684        0.0722409786
 C          2.8593014088        0.2166814829        1.0961476226
 C          3.5995648540       -0.9850978129        0.6894827157
 C          3.5196511817       -1.4053755848       -0.5865023825
 C          4.2610802030       -2.5832339927       -1.1480860559
 C          5.6212624638       -2.1617434140       -1.7219341925
 C          6.4497043527       -1.2939005003       -0.7745502752
 H          7.3989008262       -1.0847827786       -1.2724333808
 H          5.9426470155       -0.3366522087       -0.6336261444
 C          6.7204308316       -1.9300376454        0.5959996250
 H          6.5497602477       -3.0060115855        0.5453885357
 H          7.7717787944       -1.7801219742        0.8500909795
 C          5.8972032998       -1.3399046267        1.7423406089
 H          6.3173671310       -1.7020001861        2.6843659208
 H          5.9920357017       -0.2511809025        1.7385007310
 C          4.4045068755       -1.6932753815        1.7429948677
 H          4.2819918419       -2.7752505435        1.6594754946
 H          3.9878774894       -1.3736289477        2.7028537183
 H          6.1814126637       -3.0631500484       -1.9770554214
 H          5.4483596406       -1.5972299191       -2.6410878130
 H          4.3996889939       -3.3262700096       -0.3649271234
 H          3.6579253829       -3.0191286222       -1.9465204633
 O          2.7800518492       -0.7705154227       -1.5317321171
 C          2.0802084914        0.3902716360       -1.2329087799
 O          1.4562380435        0.8760291449       -2.1945438112
 O          2.8738480444        0.6081520969        2.2950830429
 C          1.3737597715        2.1439301845        0.4122041756
 C         -0.0981912391        1.9394159673        0.1497606138
 C         -0.8800076370        2.8262603207       -0.5777946495
 C         -2.2219138393        2.5624566350       -0.7933334087
 C         -2.8139017683        1.4219640983       -0.2837153224
 C         -2.0425464760        0.5304995700        0.4509402989
 C         -0.6997641657        0.7973368636        0.6651610286
 H         -0.0984810506        0.0982879954        1.2345099906
 N         -2.6381715142       -0.6254135136        0.9886469715
 S         -3.5179129212       -1.6106870971       -0.0504402823
 O         -3.4846462922       -2.9225392055        0.5601030758
 O         -3.0348109449       -1.5214538362       -1.4090018689
 C         -5.1740964455       -0.9650128004        0.0574123505
 C         -5.8384213324       -0.5787458522       -1.0901464172
 C         -7.1296104804       -0.0853578596       -0.9828685711
 C         -7.7301944781        0.0112491345        0.2630152952
 C         -7.0501117339       -0.3835679170        1.4056260212
 C         -5.7598355574       -0.8787909526        1.3053629232
 H         -5.1983011561       -1.1997548833        2.1667127255
 H         -7.5203060092       -0.3066866961        2.3727010455
 H         -8.7342278263        0.3967968186        0.3438784803
 H         -7.6595927015        0.2214530184       -1.8702398145
 H         -5.3281402603       -0.6666433616       -2.0362465504
 H         -2.0034281963       -1.1825646626        1.5427807482
 H         -3.8568732118        1.2113204908       -0.4545615208
 H         -2.8155889512        3.2564282878       -1.3684613216
 H         -0.4372946197        3.7191103633       -0.9871169276
 H          1.5100612461        2.2855503425        1.4949198253
 C          1.9636540792        3.3347884926       -0.3129803909
 C          1.8464091333        4.7088497754        0.2738159105
 C          3.1708533182        4.0084069874        0.2651276000
 H          3.9381248041        4.3586921471       -0.4089355462
 H          3.5538503207        3.6230361887        1.1989372981
 H          1.7062250866        5.5447418617       -0.3946535040
 H          1.3316539215        4.8061910521        1.2175202655
 H          1.9179244867        3.2292045325       -1.3911392113
