  62
        -98.93752342
 C         -2.2701090465       -0.7989426622        0.0798335886
 C         -3.1605776767       -0.2397797995        1.0317732633
 C         -4.0857391404        0.8110581761        0.5683080590
 C         -4.0366001518        1.1868783376       -0.7228812459
 C         -4.8915927822        2.2000257677       -1.4365580575
 C         -6.3045241343        1.6761969805       -1.7390010460
 C         -6.9747782202        0.9346167081       -0.5855425233
 H         -7.9191696431        0.5280721526       -0.9570554212
 H         -6.3509156455        0.0879973938       -0.2933230017
 C         -7.2841585486        1.7863094549        0.6433784107
 H         -7.8456063169        1.1579143449        1.3394862223
 H         -7.9311221841        2.6161588414        0.3504084800
 C         -6.0730542741        2.3524679512        1.3882187114
 H         -6.4269772178        2.7094251787        2.3597729484
 H         -5.6631162425        3.2172182787        0.8733707876
 C         -4.9696071545        1.3384385484        1.6726434900
 H         -4.2857627465        1.7654163478        2.4160809654
 H         -5.4064451701        0.4581494401        2.1577947283
 H         -6.2352532701        0.9857066508       -2.5831894774
 H         -6.9266689436        2.5194663622       -2.0436469161
 H         -4.3924806547        2.4196332837       -2.3830269503
 H         -4.9350703622        3.1216067376       -0.8637872928
 O         -3.1660037196        0.6217955767       -1.6053033345
 C         -2.2684530386       -0.3659921365       -1.2451365903
 O         -1.5501319292       -0.7493360477       -2.1923358719
 O         -3.1924954957       -0.6118937947        2.2355416666
 C         -1.3303021953       -1.8817696592        0.5823567388
 C          0.0528181214       -1.3369609223        0.8511595972
 C          0.5874827087       -1.3536430354        2.1340416065
 C          1.8608693658       -0.8670897778        2.3726670578
 C          2.6236483192       -0.3500388078        1.3409970701
 C          2.0982854754       -0.3278594234        0.0554787065
 C          0.8245931354       -0.8251890656       -0.1821912936
 H          0.4187925922       -0.8001348504       -1.1828351729
 N          2.8489077181        0.2216350225       -0.9973646516
 S          4.4454801205       -0.2549832467       -1.1861607900
 O          4.7536722828       -0.0124060840       -2.5785031687
 O          4.6597132218       -1.6008268612       -0.7064417939
 C          5.3548042443        0.9019388766       -0.1830875806
 C          6.2502015912        0.4410843277        0.7620825025
 C          6.9558660734        1.3614916762        1.5215862517
 C          6.7554607362        2.7187829580        1.3225457651
 C          5.8539466803        3.1653625277        0.3676361100
 C          5.1461801548        2.2506291097       -0.3955004287
 H          4.4379310625        2.5558823370       -1.1478665876
 H          5.7001050667        4.2216621140        0.2160111667
 H          7.3046715658        3.4333681656        1.9150310349
 H          7.6570172681        1.0165313369        2.2644157540
 H          6.3684544357       -0.6235783173        0.8860317786
 H          2.3613819737        0.2167021263       -1.8818361688
 H          3.6149901127        0.0324809011        1.5211466752
 H          2.2633403445       -0.8868707689        3.3739050570
 H         -0.0074390059       -1.7418546878        2.9478257516
 H         -1.7537266216       -2.2017339448        1.5439315575
 C         -1.2598424084       -3.0880975048       -0.3342498208
 C         -0.7906333207       -4.3969835684        0.2235423450
 C         -2.2313261242       -4.2125743123       -0.1460653369
 H         -2.6106161403       -4.7169786044       -1.0220911858
 H         -2.9540792857       -4.1200257955        0.6514958575
 H         -0.1751618089       -5.0296564656       -0.3975653654
 H         -0.5365288907       -4.4308271270        1.2721240772
 H         -0.9753437785       -2.8430750942       -1.3494546171
