  62
        -98.93943262
 C          2.6554697099        1.2911583703       -0.0978686706
 C          2.6562824399        0.1825221902       -0.9783858504
 C          3.9406838400       -0.5183615196       -1.1209080205
 C          5.0144437701       -0.0750213693       -0.4423165808
 C          6.3620429102       -0.7353562591       -0.4435648209
 C          6.4776770605       -1.7573533889        0.6963385492
 C          5.2988702007       -2.7274060491        0.7801553795
 H          5.5042321610       -3.4182319989        1.6008800296
 H          4.3964730607       -2.1722781492        1.0475249796
 C          5.0392843707       -3.5245061893       -0.5058215703
 H          5.9234248406       -3.4964449792       -1.1437688205
 H          4.8637462109       -4.5691174993       -0.2402504401
 C          3.8219271105       -3.0580743396       -1.3063752802
 H          3.6040114505       -3.8145240798       -2.0650282000
 H          2.9512795506       -2.9952235697       -0.6480925700
 C          3.9756676901       -1.7143684297       -2.0299234804
 H          4.8893344100       -1.7196890196       -2.6275448605
 H          3.1220287200       -1.6019128699       -2.7046286703
 H          7.4041740206       -2.3189732687        0.5639348592
 H          6.5413761306       -1.2148408888        1.6425029991
 H          6.5206091001       -1.2250506492       -1.4022604908
 H          7.1233831801        0.0345493111       -0.3078257311
 O          4.9795426500        1.0089972208        0.3747977691
 C          3.8002926999        1.7048973606        0.5828957692
 O          3.8985614799        2.6579917507        1.3826350291
 O          1.6417765199       -0.2048876401       -1.6142364602
 C          1.3672743598        2.0536109601        0.1618293595
 C          0.3590393900        1.1055878400        0.7659827298
 C          0.6849328103        0.4727840602        1.9633869299
 C         -0.1861707394       -0.4251681999        2.5481906801
 C         -1.3994058494       -0.7187627902        1.9496052404
 C         -1.7373984697       -0.0894096804        0.7600952703
 C         -0.8654987700        0.8280059997        0.1825436901
 H         -1.1407161902        1.3075993395       -0.7435741500
 N         -2.9528896598       -0.3993046307        0.1255802506
 S         -4.3360419696       -0.5746811408        1.0750192608
 O         -4.4770037997        0.5572628493        1.9645627707
 O         -4.3016791993       -1.8693400407        1.7077056310
 C         -5.6010333798       -0.5483636312       -0.1789848390
 C         -5.8448347197       -1.7054766213       -0.8943265188
 C         -6.8064403099       -1.6854633316       -1.8917904687
 C         -7.5036224001       -0.5157419618       -2.1560671587
 C         -7.2487852902        0.6370253483       -1.4285804289
 C         -6.2872999201        0.6244122786       -0.4302078490
 H         -6.0620459901        1.4943171888        0.1657506008
 H         -7.7944682204        1.5436986282       -1.6347806989
 H         -8.2521368103       -0.5031365820       -2.9325332886
 H         -7.0089821598       -2.5799662617       -2.4584260485
 H         -5.2844906795       -2.5923928912       -0.6486636288
 H         -3.1297775400        0.1961976992       -0.6717854395
 H         -2.0855771492       -1.4224913502        2.3921506206
 H          0.0808761708       -0.9074111097        3.4770236901
 H          1.6371494904        0.6952811005        2.4271045897
 H          1.6114144798        2.8152445003        0.9161162494
 C          0.8932860394        2.7479098899       -1.0967495805
 C         -0.0094889308        3.9399879197       -0.9989569905
 C          1.4205291891        4.1140555699       -1.4119974507
 H          1.6349774389        4.3585788598       -2.4414939808
 H          2.1095181792        4.5555050901       -0.7065797809
 H         -0.7765565609        4.0709703095       -1.7472811104
 H         -0.2958828907        4.2693892298       -0.0114495405
 H          0.7546483494        2.0643063197       -1.9260375404
