  62
        -98.94293269
 C          1.4603737833        1.4945556453        0.1586292027
 C          2.5043082867        1.0129541494        0.9879971505
 C          3.3149072430       -0.0837062174        0.4421732265
 C          3.0028427341       -0.5928515917       -0.7635830381
 C          3.7538177522       -1.7013450729       -1.4430134236
 C          3.1741257818       -3.0817843937       -1.1074096061
 C          2.9175941706       -3.2975086148        0.3835173247
 H          2.1431575545       -2.6027143518        0.7170030645
 H          2.5202527461       -4.3077515882        0.5048271952
 C          4.1615080569       -3.1344332570        1.2683432972
 H          5.0625120973       -3.2109876779        0.6584248821
 H          4.1886596065       -3.9540590430        1.9896391765
 C          4.2064269774       -1.8338910268        2.0725141580
 H          3.2660855559       -1.7039541733        2.6144872222
 H          5.0015357274       -1.9233503842        2.8176831371
 C          4.4793221238       -0.5584872595        1.2651357230
 H          4.6919460213        0.2453563466        1.9763125426
 H          5.3622917801       -0.7027174829        0.6386043022
 H          2.2287238422       -3.1971113799       -1.6394259270
 H          3.8651474393       -3.8438148514       -1.4725622164
 H          4.7988146199       -1.6536790884       -1.1412629548
 H          3.6920591827       -1.5437052532       -2.5211174737
 O          1.9439937941       -0.1627487435       -1.4929288409
 C          1.1437385245        0.8893754893       -1.0595242701
 O          0.2153423982        1.1680633259       -1.8365316189
 O          2.7533309422        1.4864275594        2.1297400118
 C          0.6482695047        2.6734898457        0.6649166188
 C         -0.8255620498        2.4107044888        0.4910201034
 C         -1.6580575181        3.1831779636       -0.3070144222
 C         -2.9997219428        2.8666915891       -0.4338510745
 C         -3.5404544863        1.7822525173        0.2315074081
 C         -2.7150990082        1.0006391754        1.0301150196
 C         -1.3729454587        1.3203257417        1.1572694950
 H         -0.7301913143        0.7064025883        1.7771176803
 N         -3.2558812508       -0.1140042132        1.7076019160
 S         -3.9129750443       -1.3273142056        0.7560827560
 O         -5.0983669444       -0.8260713158        0.1096673238
 O         -4.0971904436       -2.4507753719        1.6469962507
 C         -2.6567212541       -1.7005554680       -0.4510646167
 C         -1.7292168593       -2.6784647349       -0.1527206467
 C         -0.7146777783       -2.9372054358       -1.0591433003
 C         -0.6370864038       -2.2057637139       -2.2343004708
 C         -1.5721537748       -1.2227115864       -2.5161168257
 C         -2.5946184508       -0.9655735732       -1.6175985355
 H         -3.3395609696       -0.2100691633       -1.8053515496
 H         -1.4979322791       -0.6444933995       -3.4221257220
 H          0.1601897325       -2.3945769514       -2.9362371675
 H          0.0120425893       -3.7041842832       -0.8418492243
 H         -1.8268977302       -3.2260788995        0.7713473489
 H         -2.6087536814       -0.5274313630        2.3645272480
 H         -4.5801524963        1.5153367786        0.1318913084
 H         -3.6336523502        3.4728907897       -1.0631819963
 H         -1.2524001809        4.0198294662       -0.8511292812
 H          0.8597521780        2.7062052220        1.7471110545
 C          1.0894952373        4.0164392145        0.1012314602
 C          2.5123780237        4.2531039383       -0.3055952303
 C          1.4339711151        4.2092667252       -1.3441159764
 H          1.1453559579        5.1351029587       -1.8200927595
 H          1.3755648106        3.3489774208       -1.9919764841
 H          2.9621700872        5.2053277109       -0.0673971378
 H          3.1972449094        3.4199115451       -0.2427452954
 H          0.5905437350        4.8437955224        0.5967991139
