  62
        -98.93936084
 C         -1.7313774936       -1.5809400470       -0.3744237653
 C         -0.6548878359       -1.7166833573       -1.2859676716
 C          0.5094715504       -2.5057393125       -0.8508503401
 C          0.4954248597       -3.0393286288        0.3840122514
 C          1.6000251057       -3.8275434960        1.0318011197
 C          2.7265278937       -2.9261193803        1.5799387768
 C          2.9961683451       -1.6537248955        0.7757633672
 H          2.0560505809       -1.1131372793        0.6507343112
 H          3.6408260771       -1.0081842173        1.3801884293
 C          3.6753537227       -1.8564840118       -0.5782837951
 H          3.6840275041       -0.8917534150       -1.0918693185
 H          4.7130773280       -2.1526066471       -0.4048446271
 C          3.0447716203       -2.9019242972       -1.4955744688
 H          3.1567837578       -3.8901814424       -1.0570213263
 H          3.6181171849       -2.9054737054       -2.4273883639
 C          1.5909711758       -2.6494655057       -1.8923451902
 H          1.2763268209       -3.4587148225       -2.5634777728
 H          1.5387332794       -1.7315773097       -2.4859618534
 H          3.6422245560       -3.5144008111        1.6592144704
 H          2.4385518125       -2.6083100391        2.5847238499
 H          1.1569513912       -4.3766775652        1.8651597002
 H          1.9845047459       -4.5543132774        0.3203752889
 O         -0.5514561278       -2.8817919534        1.2352616941
 C         -1.6764320494       -2.1374255959        0.9042335096
 O         -2.5233341031       -2.0865769750        1.8147209332
 O         -0.6682749305       -1.1840321031       -2.4303135087
 C         -2.8782168784       -0.7004697427       -0.8461316247
 C         -2.4469264524        0.7443847395       -0.7727981407
 C         -2.7316046635        1.6449814831       -1.7923927693
 C         -2.2813464580        2.9515659422       -1.7208329243
 C         -1.5075709073        3.3728447803       -0.6537777217
 C         -1.2112369844        2.4775323442        0.3673333177
 C         -1.7113445361        1.1847091836        0.3178803368
 H         -1.4827369740        0.5012718450        1.1218782475
 N         -0.3880271326        2.8450791973        1.4502038249
 S          0.9859542432        1.9248467578        1.7310378521
 O          0.6198699401        0.5696744377        2.0460117315
 O          1.7110562652        2.6509422908        2.7509198214
 C          1.8967533542        1.9917279725        0.1980647038
 C          2.9754899133        2.8492459622        0.0997716775
 C          3.6549893660        2.9404653680       -1.1042075104
 C          3.2376415113        2.1869715610       -2.1911398722
 C          2.1495030547        1.3355845832       -2.0783143169
 C          1.4728466514        1.2311468334       -0.8732211528
 H          0.6299687720        0.5669683284       -0.7644915730
 H          1.8093817026        0.7484764262       -2.9171182089
 H          3.7618585910        2.2604506894       -3.1308609660
 H          4.5033942281        3.5997371362       -1.1923515801
 H          3.2626876186        3.4159446289        0.9706823054
 H         -0.1431380464        3.8258231671        1.4629084086
 H         -1.1276956071        4.3824132668       -0.6131189948
 H         -2.5124393618        3.6429582006       -2.5164922811
 H         -3.2901267327        1.3097844953       -2.6536458594
 H         -3.0160442180       -0.9420227016       -1.9132980963
 C         -4.2027486307       -0.9553921814       -0.1475354417
 C         -4.7373260591       -0.0648632015        0.9294238167
 C         -5.3852349844       -0.0734905157       -0.4209386101
 H         -6.3559299118       -0.5338802666       -0.5244095833
 H         -5.2334565057        0.7897889246       -1.0505802775
 H         -5.2427196172       -0.5332952976        1.7598513449
 H         -4.1510761133        0.7960594412        1.2128692675
 H         -4.4015577751       -2.0153693117       -0.0325422658
