  62
        -98.94312572
 C         -1.6640523841       -1.5967050932       -0.5958079750
 C         -1.5532812372       -0.3475912471       -1.2547066772
 C         -2.6454359114        0.6062748904       -1.0069619546
 C         -3.6347400455        0.2941374203       -0.1525610964
 C         -4.8375604752        1.1403418218        0.1672315738
 C         -4.5890483698        2.2211796546        1.2272560543
 C         -3.7594982047        3.4152600602        0.7544895622
 H         -4.1801733979        3.8053279227       -0.1731489270
 H         -3.8594881581        4.1954212614        1.5118392065
 C         -2.2684713604        3.1108807724        0.5583022777
 H         -1.9993394937        2.1918110859        1.0842449238
 H         -1.6686793737        3.9066492751        1.0072232004
 C         -1.8243356231        2.9836919025       -0.8980181135
 H         -0.7651981955        2.7146556803       -0.8925298349
 H         -1.9267016621        3.9487620752       -1.4006394713
 C         -2.5894884075        1.9303994838       -1.7090744921
 H         -3.5981202280        2.2854647128       -1.9224905070
 H         -2.0630989695        1.7809064355       -2.6553618200
 H         -5.5652792533        2.5889624568        1.5523839381
 H         -4.1017685192        1.7609079941        2.0901048030
 H         -5.2083143124        1.6062900463       -0.7466744924
 H         -5.6024394546        0.4577203754        0.5443448620
 O         -3.6710840561       -0.8904289658        0.5155259332
 C         -2.6950879437       -1.8508832292        0.3124424103
 O         -2.8595454481       -2.8930018805        0.9803307306
 O         -0.6186784123       -0.0287645276       -2.0327151637
 C         -0.6664971552       -2.7345417376       -0.7597021346
 C          0.3732640943       -2.6751016492        0.3301575098
 C          0.7002205981       -3.7977824040        1.0799307669
 C          1.6325653937       -3.7088539450        2.0989961571
 C          2.2437438586       -2.5038490779        2.3921456773
 C          1.9258221449       -1.3731332470        1.6442463599
 C          1.0086296997       -1.4736625997        0.6097016895
 H          0.7499090069       -0.5979960348        0.0409734987
 N          2.5456286967       -0.1512820164        1.9165505142
 S          1.9434594821        1.3498587524        1.4849820998
 O          2.4892975715        2.2418915621        2.4881351998
 O          0.5078215121        1.3400270199        1.3589133457
 C          2.7637221071        1.6791834837       -0.0625851895
 C          2.1420426646        1.4684360640       -1.2758060441
 C          2.8529209765        1.7144670470       -2.4416214321
 C          4.1623913061        2.1617579703       -2.3791381179
 C          4.7733900761        2.3703731698       -1.1513061214
 C          4.0701818924        2.1266497111        0.0157736671
 H          4.5005107375        2.2877416946        0.9903629705
 H          5.7919427702        2.7203359613       -1.1015792995
 H          4.7078007397        2.3495812844       -3.2906236964
 H          2.3685678345        1.5476581854       -3.3904555897
 H          1.1237857735        1.1134310491       -1.3228982285
 H          3.0999400208       -0.1191664762        2.7577342832
 H          2.9570322085       -2.4317744524        3.1990320469
 H          1.8766585205       -4.5847352230        2.6809978222
 H          0.2026394857       -4.7348466319        0.8772917854
 H         -1.2503578529       -3.6565551238       -0.6025128877
 C         -0.0615450050       -2.8165812925       -2.1537756772
 C          1.3439796981       -2.4140317970       -2.4717715895
 C          0.9682776335       -3.8635635405       -2.4610171129
 H          0.9039558659       -4.3914561940       -3.4003608709
 H          1.3249940628       -4.4648197898       -1.6382858165
 H          1.5190545405       -1.9267490471       -3.4183808217
 H          1.9625744809       -2.0392858645       -1.6712275496
 H         -0.8012028004       -2.6217976344       -2.9234260078
