  62
        -98.94274299
 C          0.7756078823        1.9920254408        0.2504638911
 C          1.4031342770        1.1390827694        1.1881683083
 C          2.6367385776        0.4812362206        0.7424032598
 C          3.1087304303        0.7251025690       -0.4931620435
 C          4.3495722643        0.1349654387       -1.1071742523
 C          4.2992514230       -1.3852923729       -1.3597927555
 C          4.9328285051       -2.2281049927       -0.2453422395
 H          5.4977069588       -3.0440739434       -0.7007524336
 H          5.6525489074       -1.6116454826        0.2952903182
 C          3.9545445958       -2.8614581443        0.7487530373
 H          3.4997377679       -3.7422403230        0.2890440441
 H          4.5281166318       -3.1985710157        1.6153964092
 C          2.8131265690       -1.9628356312        1.2252383182
 H          2.3159793391       -2.4616298144        2.0606879979
 H          2.0680849415       -1.8758799174        0.4293802998
 C          3.2441862555       -0.5454003642        1.6536933902
 H          2.8727606666       -0.3322767999        2.6584425150
 H          4.3297015908       -0.4592593441        1.6615721042
 H          3.2651119403       -1.6891741827       -1.5295748442
 H          4.8464135359       -1.5742182471       -2.2850368730
 H          4.4804219248        0.6521767946       -2.0598141746
 H          5.2080923778        0.3727182954       -0.4749258129
 O          2.5011061845        1.5890115545       -1.3505527466
 C          1.2983506557        2.1998515108       -1.0260005776
 O          0.8151281402        2.8965490689       -1.9392383923
 O          0.9409277932        0.9220920761        2.3418138726
 C         -0.5798381961        2.5777132541        0.5940454838
 C         -1.6547441579        1.9612334081       -0.2730322750
 C         -2.8356232042        2.6199513534       -0.5959203384
 C         -3.7919578532        1.9957825647       -1.3784525351
 C         -3.6027022865        0.7083993772       -1.8488156952
 C         -2.4252388058        0.0406422985       -1.5311017407
 C         -1.4756740436        0.6681644386       -0.7420751459
 H         -0.5584495213        0.1462867173       -0.5247841558
 N         -2.1677069253       -1.2499397397       -2.0091691979
 S         -1.1808057603       -2.3215964678       -1.1963395539
 O          0.1902175402       -1.8755091655       -1.2137755097
 O         -1.4381852057       -3.5883745760       -1.8476885213
 C         -1.8270081833       -2.3736756839        0.4647467395
 C         -3.0355467107       -3.0201105343        0.6465180952
 C         -3.5988948126       -3.0528684671        1.9107691495
 C         -2.9511145938       -2.4344308828        2.9703007349
 C         -1.7385912874       -1.7937254044        2.7732613276
 C         -1.1676494422       -1.7621683784        1.5101441270
 H         -0.2251728049       -1.2661803764        1.3422135842
 H         -1.2260279072       -1.3054549629        3.5868943423
 H         -3.3909003482       -2.4539691199        3.9549806853
 H         -4.5392953422       -3.5564311158        2.0665961862
 H         -3.4999692597       -3.4995252488       -0.1998393768
 H         -2.9334810780       -1.7067166129       -2.4797229980
 H         -4.3473364500        0.2303678858       -2.4662205036
 H         -4.7015229398        2.5209807249       -1.6273549866
 H         -3.0014508995        3.6247219569       -0.2427195711
 H         -0.7733127983        2.2716359307        1.6342147895
 C         -0.5636614685        4.0911686532        0.5296402967
 C         -1.3794370560        4.9028596686        1.4901260653
 C          0.1112007739        4.8524588461        1.6303359940
 H          0.6880288847        5.7279700102        1.3730785546
 H          0.5303280317        4.2779212500        2.4436031029
 H         -1.8275498319        5.8196094001        1.1374490983
 H         -1.9712103588        4.3718899112        2.2204711347
 H         -0.4411184611        4.4618277712       -0.4815133491
