  62
        -98.94486600
 C          1.9333328265        1.0950236891       -0.2414491532
 C          3.0556896739        1.1727506993        0.6269108911
 C          4.2862352373        0.5242973980        0.1647424118
 C          4.3082728289       -0.0794322225       -1.0369359680
 C          5.4922181507       -0.7621111796       -1.6658620286
 C          5.6942115834       -2.2124952030       -1.2061309376
 C          6.2152805953       -2.3756515176        0.2223105705
 H          7.1068054172       -1.7619120351        0.3548665939
 H          6.5182255554       -3.4185352629        0.3354962724
 C          5.1887790853       -2.0390077096        1.3131240130
 H          5.2007027463       -2.8193254873        2.0774424938
 H          4.1852725335       -2.0327158476        0.8807404188
 C          5.4302436512       -0.7065902689        2.0227756303
 H          6.3726472173       -0.7503759597        2.5731969316
 H          4.6245418210       -0.5532790765        2.7452562216
 C          5.4668097642        0.5093245565        1.0878673355
 H          6.3955778182        0.5178118264        0.5177158223
 H          5.4220807417        1.4135825661        1.6996572662
 H          6.4137729729       -2.6727365632       -1.8872500339
 H          4.7478303708       -2.7481759044       -1.3118301135
 H          5.3140831939       -0.7641976501       -2.7434222898
 H          6.3961847707       -0.1866305709       -1.4643051528
 O          3.2214961127       -0.1172420483       -1.8493736153
 C          2.0086019232        0.4426088653       -1.4718413699
 O          1.1111129455        0.2858772091       -2.3256910418
 H         -0.5942928569       -0.2643889099       -1.0459090246
 C         -0.8828639543       -0.2140952110       -0.0065452906
 C         -0.3172583540        0.7551094291        0.8100888347
 C         -0.6909104596        0.7971390656        2.1480427117
 C         -1.6042193126       -0.1112694049        2.6553550547
 C         -2.1643382092       -1.0768447023        1.8389404577
 C         -1.7932416296       -1.1286820512        0.5012547322
 N         -2.3702433929       -2.0994079264       -0.3412652904
 S         -4.0459681962       -2.1324758653       -0.3686720633
 O         -4.5275633046       -2.8764801083        0.7686686349
 O         -4.4057572656       -2.6600076019       -1.6658910543
 C         -4.5278033276       -0.4209017427       -0.2217275122
 C         -5.1640220445        0.0230365167        0.9192636982
 C         -5.4677165630        1.3701226601        1.0351767486
 C         -5.1267971941        2.2453512940        0.0160747650
 C         -4.4906490841        1.7827011552       -1.1256750930
 C         -4.1843717574        0.4375905734       -1.2473247806
 H         -3.6913478252        0.0457310202       -2.1229261868
 H         -4.2279996489        2.4634718516       -1.9195608630
 H         -5.3577027563        3.2946751434        0.1102526424
 H         -5.9636224199        1.7328235416        1.9209894821
 H         -5.4081360211       -0.6912015548        1.6883959547
 H         -1.9995437330       -2.0757406145       -1.2806355302
 H         -2.8784266134       -1.7926199582        2.2130963968
 H         -1.8833354308       -0.0669521802        3.6968667024
 H         -0.2505766425        1.5420303018        2.7945264174
 C          0.6567357947        1.7610495094        0.2445095603
 H          0.9755613654        2.4144056148        1.0675514783
 C         -0.0187537953        2.6151442936       -0.8116916014
 C         -0.9876714099        3.6718106933       -0.3768978993
 C          0.3489083916        4.0623022972       -0.9313050309
 H          0.3942960061        4.5014674491       -1.9166278256
 H          1.0931556493        4.4470059328       -0.2492796438
 H         -1.1517641174        3.7926407032        0.6828537095
 H         -1.8650677333        3.8444992089       -0.9801384108
 H         -0.2314585394        2.0797673070       -1.7275443037
 O          3.0292857108        1.7685894259        1.7360772220
