  62
        -98.94952897
 C         -1.6340293852        0.8036302146        0.7092627716
 C         -1.5029615780        1.5971835190       -0.4555190620
 C         -0.5149981357        2.6839483807       -0.3827317884
 C          0.2155208927        2.8383745855        0.7358858113
 C          1.2507018888        3.9053473111        0.9486079806
 C          2.6559146575        3.4454229116        0.5392633742
 C          2.7278199681        2.8148327406       -0.8516234035
 H          3.7777773500        2.5859005893       -1.0513210092
 H          2.1932322255        1.8620669809       -0.8585887749
 C          2.1735520204        3.6928565442       -1.9815361421
 H          2.1300520290        4.7350104477       -1.6610811061
 H          2.8598240846        3.6407122598       -2.8295183590
 C          0.7995204584        3.2550695688       -2.4934866036
 H          0.8090908984        2.1759652624       -2.6717091920
 H          0.6190040254        3.7474682990       -3.4532518723
 C         -0.3882874701        3.5831715292       -1.5793805099
 H         -0.3390630710        4.6310411415       -1.2732785095
 H         -1.3043724652        3.4369068733       -2.1595365102
 H          3.0115339979        2.7121118581        1.2671417821
 H          3.3222859740        4.3096355116        0.5792359303
 H          1.2597913639        4.1616120849        2.0098627752
 H          0.9688413299        4.7873752038        0.3762607607
 O          0.0990192497        2.0215081756        1.8150113013
 C         -0.8193074058        0.9824305456        1.8257288395
 O         -0.8145336187        0.3028681725        2.8720118871
 O         -2.1931033370        1.4259195324       -1.4945933774
 C         -2.6320704363       -0.3415100934        0.7418419339
 C         -2.2787564872       -1.3332287587       -0.3396872027
 C         -3.1956987339       -1.8741367651       -1.2306072913
 C         -2.7742105298       -2.7472229825       -2.2193332523
 C         -1.4391714969       -3.0825300098       -2.3510890956
 C         -0.5161577976       -2.5563681691       -1.4540097408
 C         -0.9473820523       -1.7151925217       -0.4432755444
 H         -0.2301449898       -1.3129649117        0.2573631616
 N          0.8493452277       -2.8678058466       -1.5388378516
 S          1.9733945367       -1.6820884649       -1.1668189388
 O          1.5022309881       -0.3628211317       -1.5138227563
 O          3.1841260606       -2.1174180890       -1.8332216398
 C          2.2066122445       -1.8325540891        0.5906676175
 C          2.2315368158       -0.6970496260        1.3742297225
 C          2.4284061045       -0.8242061470        2.7394798862
 C          2.6017071977       -2.0823758639        3.2939752562
 C          2.5832630181       -3.2143567311        2.4927392122
 C          2.3851695048       -3.0924216822        1.1270806257
 H          2.3612283728       -3.9478471531        0.4727093782
 H          2.7185876272       -4.1905786912        2.9300595920
 H          2.7483058345       -2.1785101542        4.3582006924
 H          2.4261519602        0.0571492852        3.3607235091
 H          2.0756292204        0.2634329084        0.9080680715
 H          1.1174377082       -3.4034427581       -2.3516389571
 H         -1.1097045313       -3.7394319178       -3.1417286577
 H         -3.4944834899       -3.1571095234       -2.9111729665
 H         -4.2363077745       -1.6028679365       -1.1613233884
 H         -2.4966699149       -0.8348346970        1.7156948233
 C         -4.0495941066        0.1818677286        0.6501850876
 C         -5.1777499546       -0.5857394039        1.2695003509
 C         -4.7122956690        0.6953419356        1.8918799664
 H         -5.3438041952        1.5677202666        1.8161350827
 H         -4.1476241113        0.6440761531        2.8115792471
 H         -6.1338113637       -0.5917095398        0.7681527476
 H         -4.9366789065       -1.5095119469        1.7731913688
 H         -4.2369887070        0.7156457568       -0.2743344169
