  62
        -98.95135782
 C         -2.3395095905       -0.0862927523        0.1118908996
 C         -1.6099269543        0.4780205032       -0.9609409399
 C         -1.4498033713        1.9365793676       -0.9293031076
 C         -1.9055773624        2.6326086289        0.1279754056
 C         -1.8235681197        4.1238477009        0.3109470154
 C         -0.4697899969        4.6102413698        0.8456817372
 C          0.6684627533        4.6141912233       -0.1751639023
 H          0.3417581101        5.1275505185       -1.0806658387
 H          1.4824212526        5.1992875630        0.2576905524
 C          1.2048270708        3.2215403054       -0.5344608718
 H          0.9147341219        2.5031764383        0.2363007238
 H          2.2981029221        3.2451913706       -0.5413598239
 C          0.7584440431        2.7010000244       -1.8999182623
 H          1.1585471891        3.3475023264       -2.6848239572
 H          1.1843055205        1.7048399640       -2.0335235802
 C         -0.7612104197        2.6029371014       -2.0839893962
 H         -1.1815371507        3.5969735757       -2.2398474633
 H         -0.9561570030        1.9983709807       -2.9735932308
 H         -0.1867391102        3.9889450881        1.6992405338
 H         -0.6095084661        5.6318665971        1.2075405461
 H         -2.0446786863        4.6239743695       -0.6327710988
 H         -2.5968778286        4.3895669493        1.0351338434
 O         -2.5359421338        2.0427375484        1.1784771003
 C         -2.7719629409        0.6788532454        1.1939693657
 O         -3.3743917574        0.2710723131        2.2099721486
 H         -0.5222467393       -1.0002264522        1.6934147519
 C         -0.3130672532       -1.8579377871        1.0707723301
 C         -1.2859076623       -2.3240511654        0.1958766085
 C         -0.9975909964       -3.4377004827       -0.5828898874
 C          0.2432122533       -4.0468954735       -0.5007514200
 C          1.2263880874       -3.5467348844        0.3338259289
 C          0.9439305066       -2.4370775549        1.1220971943
 N          1.9166241611       -1.8591589592        1.9652986317
 S          2.3570985470       -0.2769132254        1.6224736652
 O          3.4294069073        0.0226768905        2.5470110957
 O          1.2026994568        0.5808884878        1.6860505030
 C          3.0141245413       -0.3611086489       -0.0342589664
 C          4.3857165004       -0.3350264724       -0.2022304584
 C          4.9114101482       -0.4796136304       -1.4755581139
 C          4.0605646289       -0.6625821170       -2.5556017255
 C          2.6876354605       -0.6930514230       -2.3698615710
 C          2.1532490346       -0.5397981832       -1.0989278297
 H          1.0861781030       -0.5516294770       -0.9407426378
 H          2.0151624338       -0.8330229934       -3.2013540355
 H          4.4677540588       -0.7814687687       -3.5472154883
 H          5.9793600130       -0.4537453759       -1.6208489116
 H          5.0065583077       -0.1948240018        0.6679249815
 H          2.7522745867       -2.4196630330        2.0658779868
 H          2.2030064813       -4.0049115140        0.3755700833
 H          0.4539308441       -4.9116922236       -1.1109932707
 H         -1.7421736134       -3.8250410361       -1.2587408802
 C         -2.6001282383       -1.5825880805        0.1534491663
 H         -3.1261788024       -1.7707975103        1.1012884980
 C         -3.4945382667       -1.9980637703       -0.9957486579
 C         -4.4069298410       -3.1781225115       -0.8528680883
 C         -4.9730300815       -1.7909126154       -0.8713218596
 H         -5.5240784674       -1.4674084567       -1.7414928596
 H         -5.3377349049       -1.3722556319        0.0557914279
 H         -4.3972759427       -3.7069813202        0.0882746202
 H         -4.5746215519       -3.8084323238       -1.7131049751
 H         -3.0433783147       -1.8108799541       -1.9631357407
 O         -1.1275014657       -0.1992647769       -1.9068105598
