  62
        -98.93864213
 C         -2.8073892338       -0.0786868304        0.1060006143
 C         -2.1303047888       -0.8254673247        1.1009848308
 C         -1.8342484425       -2.2266488958        0.7640481051
 C         -2.2078583335       -2.7191580144       -0.4292079512
 C         -1.9453311346       -4.1184470124       -0.9042639099
 C         -0.6356166692       -4.2185819905       -1.6974216678
 C          0.5702229384       -3.5800064183       -1.0072828936
 H          1.4416325330       -3.7802837750       -1.6358741470
 H          0.4455789822       -2.4943271196       -0.9847875343
 C          0.8411815984       -4.0904377791        0.4148918609
 H          0.3498430210       -5.0527296798        0.5653901003
 H          1.9155492161       -4.2542077888        0.5240698604
 C          0.4199093997       -3.1227097526        1.5228977277
 H          0.9004261975       -3.4355028220        2.4539915292
 H          0.7810150340       -2.1194672899        1.2796865273
 C         -1.0885347970       -3.0336523862        1.7891356494
 H         -1.2316567534       -2.5147269002        2.7414887531
 H         -1.5098625882       -4.0370715061        1.8769661903
 H         -0.4310552022       -5.2749862972       -1.8844735396
 H         -0.7745957767       -3.7233633313       -2.6614313644
 H         -1.9117135437       -4.7847671006       -0.0441862567
 H         -2.7717172121       -4.4181276778       -1.5516165835
 O         -2.8643797140       -1.9768359341       -1.3578587028
 C         -3.1481506527       -0.6430868386       -1.1264791517
 O         -3.7206231343       -0.0705932531       -2.0766586946
 O         -1.7805412951       -0.3673714527        2.2209268938
 C         -3.1327376111        1.4023535897        0.2502553366
 C         -1.9385906614        2.1948339482       -0.2168207269
 C         -2.0315441238        3.1446216578       -1.2262049169
 C         -0.8959672517        3.7737482123       -1.7099829686
 C          0.3554714021        3.4547679269       -1.2120361513
 C          0.4524213322        2.5177455597       -0.1937887544
 C         -0.6852778049        1.9113581055        0.3084142753
 H         -0.5948741898        1.1779083018        1.0961153742
 N          1.7377439538        2.1084300932        0.2672526258
 S          2.2968507951        0.8917601885       -0.7804870430
 O          2.5491569391        1.5059390854       -2.0600939340
 O          1.3809600128       -0.2279715683       -0.7801604095
 C          3.8397789782        0.4305683034       -0.0161153832
 C          3.9630737696       -0.8045471194        0.5891756730
 C          5.1639325408       -1.1344501279        1.1984590665
 C          6.2119942819       -0.2268974115        1.1939804157
 C          6.0717186726        1.0102788307        0.5821452176
 C          4.8750168577        1.3457700272       -0.0300752744
 H          4.7214649956        2.2908070103       -0.5234463159
 H          6.8896647929        1.7124104661        0.5802956749
 H          7.1447020657       -0.4862461031        1.6694636196
 H          5.2749052851       -2.0960263160        1.6731476321
 H          3.1223032856       -1.4798022025        0.5649451868
 H          1.6548577746        1.6840714283        1.1848622758
 H          1.2520519377        3.8970440852       -1.6141579648
 H         -0.9849245588        4.5029327245       -2.5009996013
 H         -2.9982755312        3.3659593155       -1.6550340169
 H         -3.9556176908        1.5902642735       -0.4571013077
 C         -3.6228507720        1.7851852120        1.6392193742
 C         -2.8645089530        2.6859942220        2.5632704948
 C         -4.1072779248        3.1825042822        1.8922441901
 H         -4.9989663940        3.3226618428        2.4839124077
 H         -3.9892791009        3.8979015549        1.0921271626
 H         -2.8958374933        2.4583640559        3.6177746849
 H         -1.9163355326        3.0792212401        2.2315583488
 H         -4.1850491862        0.9834580515        2.1059626056
