  62
        -98.93221286
 C         -2.4037473799       -0.7897474391        0.7919641010
 C         -3.4591283798       -0.8767805895       -0.1456601491
 C         -4.5671032397        0.0859038307        0.0181674303
 C         -4.5091615799        1.0117596111        0.9925112899
 C         -5.4906543199        2.0849499413        1.4159031693
 C         -6.6771716497        2.4541492610        0.5296923489
 C         -6.3046509395        3.1509821204       -0.7788824413
 H         -7.2109958694        3.2613974301       -1.3781483015
 H         -5.9366102995        4.1531712605       -0.5450492217
 C         -5.2360569494        2.4540830100       -1.6174533909
 H         -4.2984260695        2.4139309402       -1.0590850207
 H         -5.0550046292        3.0669156396       -2.5047518011
 C         -5.5913130394        1.0464352998       -2.0910565503
 H         -4.8154662893        0.7298211494       -2.7934912500
 H         -6.5410557993        1.0679335196       -2.6292261805
 C         -5.6782896596       -0.0203140797       -0.9868831799
 H         -6.6462460797        0.0005325405       -0.4922888600
 H         -5.5719364495       -1.0013173800       -1.4589137794
 H         -7.2933194798        3.1479736312        1.1080899085
 H         -7.2890832297        1.5780699809        0.3362129192
 H         -4.8899957299        2.9811229614        1.6015970090
 H         -5.8738723101        1.7650010217        2.3912134393
 O         -3.4495164600        1.0802827214        1.8519020700
 C         -2.3897386900        0.1991958614        1.7780229606
 O         -1.5049570102        0.3917465917        2.6371567306
 O         -3.5089914796       -1.7197952799       -1.0791128288
 C         -1.2039285799       -1.7244113491        0.7854454716
 C         -0.2027031697       -1.2812732696       -0.2550542884
 C         -0.4105001295       -1.4907913302       -1.6137497484
 C          0.5303102606       -1.0699311106       -2.5363502384
 C          1.6905649106       -0.4339742205       -2.1303366085
 C          1.9045490804       -0.2140835999       -0.7762334085
 C          0.9606986902       -0.6413474995        0.1486671415
 H          1.1216036000       -0.4588397990        1.2035577914
 N          3.0731562203        0.4540854802       -0.3477663886
 S          4.5450151904       -0.2282299900       -0.8270787481
 O          4.7110139606       -0.0136418107       -2.2415665982
 O          4.6256356703       -1.6027612798       -0.3810358675
 C          5.6956814203        0.7852019803        0.0794078716
 C          5.9661386804        2.0560339601       -0.3909822389
 C          6.8434477803        2.8594047804        0.3195261209
 C          7.4314291501        2.3817472609        1.4816047812
 C          7.1503893900        1.1038297311        1.9404828817
 C          6.2726926501        0.2954023208        1.2351566420
 H          6.0311253000       -0.7071937290        1.5501964224
 H          7.6107127698        0.7344185815        2.8427552520
 H          8.1149655900        3.0086094211        2.0322051811
 H          7.0664976504        3.8530173702       -0.0343227195
 H          5.4923716106        2.3816179797       -1.3021839191
 H          3.0775898402        0.5657021107        0.6584746813
 H          2.4342212507       -0.1160125508       -2.8426064585
 H          0.3583149508       -1.2380394411       -3.5890628183
 H         -1.3226745495       -1.9652882203       -1.9398803883
 H         -0.7327701601       -1.6001997987        1.7700599116
 C         -1.5805048500       -3.1832917292        0.6206621122
 C         -0.5756279001       -4.2319445991        0.9878828228
 C         -1.7914563302       -4.0269958686        1.8399218025
 H         -2.5687600102       -4.7759358186        1.8193297627
 H         -1.6654531903       -3.5554970682        2.8039824024
 H         -0.5154037900       -5.1223162793        0.3811041932
 H          0.3775632599       -3.8988054389        1.3712173828
 H         -2.2201636998       -3.3739994895       -0.2300520778
