  62
        -98.94847379
 C         -0.8348993015       -1.2174188964        0.5694529550
 C         -1.2067849561       -0.5339883762       -0.6129722142
 C         -2.1469270448        0.5789602685       -0.4289645737
 C         -2.4809574044        0.9714599273        0.8131524507
 C         -3.4253437147        2.0892504386        1.1639401333
 C         -4.9002169001        1.6633512071        1.1819832823
 C         -5.5179424972        1.4153624017       -0.1950049171
 H         -6.5975228424        1.3381254625       -0.0513662809
 H         -5.3359445823        2.2797431565       -0.8341620164
 C         -5.0210323691        0.1417069210       -0.8935188404
 H         -4.5458359046       -0.5142832669       -0.1603088058
 H         -5.8741554799       -0.4038588283       -1.3032278564
 C         -4.0453735415        0.3871877245       -2.0450268209
 H         -4.5541028011        0.9294315257       -2.8448953509
 H         -3.7347177836       -0.5831237836       -2.4402801733
 C         -2.7825538921        1.1666693378       -1.6519418540
 H         -2.0612719980        1.0873985156       -2.4679466949
 H         -3.0262076013        2.2158630462       -1.4922721386
 H         -4.9969547195        0.7633084590        1.7937768079
 H         -5.4647237376        2.4597531034        1.6725736194
 H         -3.1511026173        2.4291396022        2.1650670231
 H         -3.2995807825        2.9166642031        0.4656484849
 O         -1.9736778849        0.3817696596        1.9304431999
 C         -1.1971485898       -0.7627085033        1.8363549184
 O         -0.8909887521       -1.2696510150        2.9360605568
 H          1.7102693152       -0.5793118512        1.0913157726
 C          2.0754448532       -1.1824645342        0.2719291261
 C          1.3027100492       -2.2380160333       -0.1969445186
 C          1.7986744143       -3.0180153565       -1.2335289871
 C          3.0333620146       -2.7360866103       -1.7915870281
 C          3.7965483967       -1.6806473618       -1.3287514938
 C          3.3133567714       -0.9014321951       -0.2826939681
 N          4.0767249535        0.1579772230        0.2275158539
 S          3.3581943778        1.4922398009        0.9098185146
 O          4.3965960995        2.5023250086        0.8812796505
 O          2.8361681427        1.1783475657        2.2169386788
 C          2.0397237310        2.0034025670       -0.1773512555
 C          2.2140488640        1.9425774281       -1.5453424125
 C          1.2228129180        2.4479049961       -2.3703089483
 C          0.0891775721        3.0215861050       -1.8180490037
 C         -0.0732915735        3.0715829952       -0.4430423622
 C          0.9069569495        2.5526691469        0.3863683767
 H          0.8128950065        2.5598010740        1.4614674164
 H         -0.9541786694        3.5160196642       -0.0094265614
 H         -0.6724479048        3.4312333564       -2.4620788857
 H          1.3405243594        2.3974378000       -3.4406680411
 H          3.1101305145        1.5059751261       -1.9547953079
 H          4.9127850233        0.3872342225       -0.2885752839
 H          4.7600084906       -1.4622330987       -1.7630126176
 H          3.4054509397       -3.3461058015       -2.6004227941
 H          1.2185040173       -3.8450881805       -1.6073616249
 C         -0.0210158020       -2.4949663141        0.4785524229
 H          0.1867611240       -2.7965515013        1.5161945642
 C         -0.8455657081       -3.5768232712       -0.1895111274
 C         -0.6184937033       -5.0187754212        0.1476783897
 C         -1.8558646382       -4.3226564053        0.6273141102
 H         -2.8020647994       -4.5765926923        0.1733454007
 H         -1.9295185201       -4.0693239516        1.6754031120
 H          0.1464653348       -5.2477749542        0.8742344322
 H         -0.7185826319       -5.7548096696       -0.6356774512
 H         -1.1169261850       -3.3239766346       -1.2080146009
 O         -0.7985305457       -0.8480880212       -1.7596987712
