  62
        -98.93237344
 C         -2.0127052918       -1.0725197509       -0.4003894609
 C         -2.8178714668       -0.6605241342        0.6904149783
 C         -3.4137498067        0.6837885513        0.6258882946
 C         -3.1529524068        1.4626089224       -0.4401502726
 C         -3.5639220529        2.8846138831       -0.7628814550
 C         -4.6643595931        3.5786101369        0.0356318727
 C         -6.0638987467        2.9990237565       -0.1688163798
 H         -6.7446456907        3.4965557940        0.5251912042
 H         -6.3915267425        3.2354798599       -1.1842535896
 C         -6.1848913171        1.4881789146        0.0130522102
 H         -5.5740100762        0.9788951662       -0.7351640304
 H         -7.2252375273        1.2107790556       -0.1772528396
 C         -5.8106653090        0.9643877914        1.3980393828
 H         -6.0886737805       -0.0922073689        1.4362773219
 H         -6.3899349961        1.4906305352        2.1590804846
 C         -4.3192985464        1.0623895225        1.7627531728
 H         -4.0682233422        2.0505626771        2.1409626168
 H         -4.1184061127        0.3440854910        2.5629788246
 H         -4.6850505164        4.6181238494       -0.3027761102
 H         -4.4076434538        3.5961458620        1.0906409588
 H         -3.8363399781        2.8826977640       -1.8232676766
 H         -2.6465123962        3.4788542467       -0.6835002023
 O         -2.3584147332        1.0322734366       -1.4621238756
 C         -1.7667999132       -0.2261661948       -1.4810034052
 O         -1.0941484157       -0.4365610408       -2.5063821308
 O         -3.0329866196       -1.3993981169        1.6897982070
 C         -1.3915779945       -2.4521451605       -0.2784183234
 C         -0.1691996452       -2.4017883168        0.6044771189
 C          0.0718114335       -3.3978763619        1.5438705938
 C          1.2083320777       -3.3603364727        2.3317125779
 C          2.1249502736       -2.3345147673        2.1936787513
 C          1.8834470417       -1.3220766248        1.2704613307
 C          0.7409066768       -1.3615069568        0.4847064981
 H          0.5649836355       -0.5729004332       -0.2326881256
 N          2.7739006622       -0.2442587853        1.1490048591
 S          2.9098360102        0.5478190320       -0.3350955843
 O          1.8431248416        1.5115322722       -0.4428658908
 O          3.0362374200       -0.4202962927       -1.4002466932
 C          4.4613507137        1.3933522080       -0.0922877354
 C          4.4694492382        2.5808441504        0.6149321077
 C          5.6782426522        3.2224461222        0.8334935080
 C          6.8526039279        2.6689282447        0.3450796440
 C          6.8288531941        1.4778306578       -0.3646761736
 C          5.6232294286        0.8305918787       -0.5859326649
 H          5.5536826411       -0.0918111677       -1.1397988522
 H          7.7425084087        1.0517651690       -0.7465515233
 H          7.7917128642        3.1708968930        0.5160629565
 H          5.6998548740        4.1502744477        1.3819645970
 H          3.5304514086        2.9760892510        0.9662029612
 H          3.6745411930       -0.4215724394        1.5721707640
 H          3.0144437337       -2.3054531735        2.8040734682
 H          1.3853625134       -4.1398780814        3.0569067456
 H         -0.6460739104       -4.1960657527        1.6620317601
 H         -2.1439552678       -3.0641998495        0.2467647122
 C         -1.1083528348       -3.1291512989       -1.6103375947
 C          0.2468559963       -3.1576513851       -2.2438957740
 C         -0.3322536918       -4.4121439985       -1.6660447462
 H         -0.6651742396       -5.1842036417       -2.3430122929
 H          0.0953047023       -4.7805110581       -0.7461068026
 H          0.2965432627       -3.0460643626       -3.3163589793
 H          1.0628861159       -2.6699136908       -1.7315966651
 H         -1.9487429238       -3.0384422563       -2.2912889568
