  62
        -98.94064931
 C         -1.5453172000       -1.1714994201        0.0060553298
 C         -2.6474169000       -0.9242507202        0.8601472098
 C         -3.4037477101        0.3169660898        0.6248518097
 C         -3.0063691302        1.1576520197       -0.3483504403
 C         -3.5375384403        2.5127051897       -0.7665610804
 C         -4.9340951303        2.9671801896       -0.3488400504
 C         -6.0807811102        2.1477704395       -0.9385553404
 H         -7.0161381803        2.5162909495       -0.5114110604
 H         -6.1169863203        2.3222734594       -2.0169407104
 C         -5.9955295901        0.6393925795       -0.7175440703
 H         -5.1311242601        0.2381580695       -1.2507520103
 H         -6.8851283501        0.1860618294       -1.1634423903
 C         -5.9294187801        0.1937005096        0.7424203697
 H         -6.0490202100       -0.8929547804        0.7581314598
 H         -6.7627454101        0.6286612896        1.2974564197
 C         -4.6194989901        0.5251636597        1.4803996897
 H         -4.6362039502        1.5346209398        1.8843640796
 H         -4.5237920401       -0.1638321302        2.3244503997
 H         -5.0454812904        3.9943559096       -0.7069621105
 H         -5.0128107803        3.0014339897        0.7337292696
 H         -3.4675219903        2.5342913496       -1.8586647904
 H         -2.8141623703        3.2469578098       -0.3949391005
 O         -1.9226669202        0.8872092898       -1.1319283203
 C         -1.1812725101       -0.2764014602       -0.9976618403
 O         -0.2529339301       -0.3786957102       -1.8217656803
 O         -2.9840230600       -1.7064702501        1.7881601098
 C         -0.7200289299       -2.4267235801        0.2395571999
 C          0.6396021701       -1.9781235499        0.7120718898
 C          0.8117188000       -1.6031044299        2.0420423398
 C          2.0148899200       -1.0823079897        2.4800761298
 C          3.0643456800       -0.8991089997        1.5957337497
 C          2.8960118200       -1.2593152098        0.2657631298
 C          1.7008541000       -1.8191244399       -0.1646355802
 H          1.5869504400       -2.0868050600       -1.2026866602
 N          3.9338819300       -1.0197427298       -0.6532187803
 S          4.6490213499        0.4923912902       -0.5916954804
 O          5.0709435298        0.7747983502       -1.9464496504
 O          5.7033938099        0.4788528704        0.3937024996
 C          3.3797564398        1.6411017702       -0.0776997204
 C          2.1646335698        1.6466703701       -0.7329579404
 C          1.1905225897        2.5449804400       -0.3274781105
 C          1.4454574897        3.4227396401        0.7142808595
 C          2.6736398797        3.4096192202        1.3573114895
 C          3.6495755198        2.5099863303        0.9609402495
 H          4.6140185398        2.4584109904        1.4397835995
 H          2.8708193797        4.0933009903        2.1672710494
 H          0.6822893296        4.1184319201        1.0262576494
 H          0.2342477697        2.5368843599       -0.8274122005
 H          1.9618385598        0.9521733400       -1.5329367904
 H          3.6875096900       -1.2563879099       -1.6037984402
 H          4.0043571800       -0.4765339496        1.9124217297
 H          2.1353692700       -0.8032736097        3.5156184497
 H         -0.0188939499       -1.7113231899        2.7253090498
 H         -1.2177994599       -2.9570134100        1.0618785899
 C         -0.6886174499       -3.3275541901       -0.9766019601
 C         -0.1960470698       -4.7358359501       -0.8334631900
 C         -1.6522309498       -4.4709969802       -1.0670820200
 H         -2.0732463498       -4.7142156303       -2.0312288500
 H         -2.3369524198       -4.6141959502       -0.2441377900
 H          0.3845738602       -5.1646838801       -1.6359714700
 H          0.1101019203       -5.0573028100        0.1504962300
 H         -0.4623875699       -2.8024753202       -1.8968294901
