  62
        -98.93283459
 C         -2.5283592757       -1.2654101715       -0.1768521481
 C         -2.2367850769       -0.0386120277       -0.8195487344
 C         -3.3295466675        0.9516957024       -0.8600909247
 C         -4.5104275238        0.6613069257       -0.2887166094
 C         -5.7625617247        1.5007263117       -0.2363398213
 C         -5.6005768855        2.9984977981        0.0572317421
 C         -4.4367702599        3.3556594672        0.9933946570
 H         -4.8096376441        3.9962956560        1.7946285941
 H         -4.0365963811        2.4524188820        1.4572582144
 C         -3.3068325500        4.1048065780        0.2827289068
 H         -2.7134302364        4.6379841245        1.0293061594
 H         -3.7456419049        4.8526575053       -0.3814514527
 C         -2.3421272212        3.2315487953       -0.5192105551
 H         -1.6655517507        3.8909795562       -1.0688127844
 H         -1.7202749317        2.6387550950        0.1582298459
 C         -2.9992473368        2.2620570689       -1.5149395228
 H         -3.8725307912        2.7096219389       -1.9836488653
 H         -2.2638373345        2.0337611596       -2.2916172909
 H         -5.4815146161        3.5426049332       -0.8785482381
 H         -6.5394388236        3.3355876742        0.4996041114
 H         -6.3789933734        1.0402897753        0.5393173874
 H         -6.2933349584        1.3776610145       -1.1847130428
 O         -4.7422776850       -0.5302937223        0.3318597436
 C         -3.7700681709       -1.5101476723        0.4103178991
 O         -4.1277759462       -2.5391830287        1.0186779649
 O         -1.1280142804        0.2258658374       -1.3538959171
 C         -1.4791982649       -2.3595136180       -0.0539839652
 C         -0.4131386878       -1.8908229603        0.9072810919
 C         -0.7284446723       -1.8392141768        2.2637423870
 C          0.1950427985       -1.3893748206        3.1864312530
 C          1.4484422019       -0.9723931975        2.7728555281
 C          1.7732540102       -1.0184529399        1.4225759536
 C          0.8464478667       -1.4831432366        0.4975571006
 H          1.1154450868       -1.4931803662       -0.5447642014
 N          3.0574023579       -0.6337438194        0.9907660214
 S          3.1954098989        0.3522018383       -0.3774975066
 O          2.3924288426        1.5429984465       -0.2126884488
 O          2.9676449303       -0.4408912387       -1.5570830537
 C          4.9269063162        0.7716307570       -0.2687425071
 C          5.3005248417        1.9659719736        0.3177236322
 C          6.6487584924        2.2703987042        0.4215177292
 C          7.5961159891        1.3785530386       -0.0580756450
 C          7.2062712653        0.1837212128       -0.6448006170
 C          5.8597555086       -0.1260402458       -0.7518382890
 H          5.5087319472       -1.0373285671       -1.2070043470
 H          7.9456191576       -0.5056563135       -1.0194031248
 H          8.6446476845        1.6178620929        0.0228730196
 H          6.9541947781        3.2000420170        0.8741580733
 H          4.5284274622        2.6331606420        0.6663227870
 H          3.5981037721       -0.2299806673        1.7455154668
 H          2.1707405047       -0.6151112714        3.4916349353
 H         -0.0625057351       -1.3568967674        4.2344750905
 H         -1.7147855495       -2.1526008601        2.5786614084
 H         -1.9939260398       -3.2136350663        0.4087268175
 C         -0.9471341970       -2.7898804986       -1.4032351505
 C         -0.2630831963       -4.1165696462       -1.5312170811
 C         -1.6221055980       -3.9130010056       -2.1290346822
 H         -1.7107537051       -3.8509755997       -3.2032902761
 H         -2.4683800194       -4.3808426736       -1.6469276054
 H          0.5857520431       -4.1945097339       -2.1933274999
 H         -0.1869123803       -4.7245911376       -0.6423200920
 H         -0.5738479808       -1.9669073818       -2.0005964058
