  62
        -98.93138414
 C         -2.3531703435        0.7331068808       -0.0958426795
 C         -3.5461830844        0.7390609207       -0.8525095948
 C         -4.7343304662        0.1344954434       -0.2221450728
 C         -4.6270394240       -0.3688739319        1.0208659216
 C         -5.6834742708       -1.0386757833        1.8631233581
 C         -7.0736256041       -0.3843310049        1.8777506057
 C         -8.1369398763       -1.1973718518        1.1372265256
 H         -7.9745798175       -2.2561509034        1.3495682063
 H         -9.1192516301       -0.9325727737        1.5347772024
 C         -8.1795351324       -0.9868260011       -0.3753277858
 H         -8.8727243859       -1.7215070137       -0.7917886925
 H         -8.5873950051        0.0030499389       -0.5912985001
 C         -6.8347986932       -1.1207613786       -1.0926399831
 H         -7.0369063920       -1.3540430180       -2.1403121649
 H         -6.2658456423       -1.9561435573       -0.6858380599
 C         -5.9874937121        0.1599938482       -1.0542830201
 H         -5.6423166540        0.4019244795       -2.0643988652
 H         -6.6042529537        1.0060984076       -0.7379175729
 H         -7.0137131869        0.6232152713        1.4693693945
 H         -7.3863278980       -0.2923540636        2.9191200119
 H         -5.2698588514       -1.0543776309        2.8740425375
 H         -5.7676436583       -2.0813822045        1.5465485805
 O         -3.4515578564       -0.3551574326        1.7129249496
 C         -2.2910294763        0.1808372124        1.1823819058
 O         -1.3011151205        0.1117063054        1.9345559942
 O         -3.6177064535        1.2243380171       -2.0147301642
 C         -1.0933269687        1.3250661071       -0.7014608880
 C         -0.0375878684        0.2527944432       -0.8148203548
 C         -0.3440872214       -0.9084749710       -1.5204226720
 C          0.5820966388       -1.9250562170       -1.6463983215
 C          1.8351142378       -1.8098567318       -1.0695174224
 C          2.1545419962       -0.6541778546       -0.3716012184
 C          1.2244089866        0.3736031657       -0.2573901550
 H          1.4881265663        1.2649537273        0.2899883533
 N          3.4164098953       -0.5336489917        0.2360074038
 S          4.7646711286       -1.0711727900       -0.6252629836
 O          4.7154782650       -0.5783130787       -1.9839555858
 O          4.8643745855       -2.5019216712       -0.4800701165
 C          6.0779012666       -0.2776078207        0.2803450410
 C          6.5934805359        0.9183628826       -0.1819375103
 C          7.5949125228        1.5419921799        0.5455720144
 C          8.0583833950        0.9640078089        1.7177909315
 C          7.5308042301       -0.2368459492        2.1689025124
 C          6.5303139627       -0.8664538487        1.4458475721
 H          6.0967802816       -1.8038416281        1.7529122376
 H          7.8958380501       -0.6840143944        3.0793391906
 H          8.8377221089        1.4512987639        2.2821016856
 H          8.0092435524        2.4739645851        0.1961540515
 H          6.2088378177        1.3267678105       -1.1027200989
 H          3.5689774658        0.3879776964        0.6218393848
 H          2.5671948398       -2.5964910231       -1.1568999206
 H          0.3283165412       -2.8194112159       -2.1960872568
 H         -1.3245347972       -1.0030120966       -1.9676445119
 H         -1.3754885298        1.6323918021       -1.7191677907
 C         -0.6531316358        2.5491068384        0.0724920651
 C          0.1791529964        3.6012725596       -0.5962464372
 C         -1.2566995521        3.8773087737       -0.2683987076
 H         -1.4809438801        4.5625933272        0.5351796424
 H         -1.9723627434        3.9040644730       -1.0769755106
 H          0.9402341899        4.1032301538       -0.0179963221
 H          0.4423975389        3.4451655014       -1.6315615442
 H         -0.4713846247        2.3375765513        1.1202724106
