  62
        -98.94031491
 C         -1.4246898918       -1.4880428745        0.0049030007
 C         -2.4088259103       -1.0088663866        0.8973359185
 C         -3.2424780450        0.1109988915        0.4217546415
 C         -3.0022150313        0.6230120627       -0.7997643335
 C         -3.7428402364        1.7539907572       -1.4611054764
 C         -3.3362624543        3.1490711250       -0.9374690000
 C         -2.8602820702        3.1841445926        0.5151064091
 H         -2.1251894279        2.3921043552        0.6728332446
 H         -2.3493083905        4.1359301315        0.6837138717
 C         -3.9757819988        3.0644506677        1.5532982159
 H         -3.5143044083        2.9605905974        2.5386495243
 H         -4.5538633135        3.9921493060        1.5542177918
 C         -4.9520235011        1.9099533363        1.3408587717
 H         -5.6822603579        1.9438093708        2.1550548615
 H         -5.5066144508        2.0607154552        0.4183843829
 C         -4.3357623783        0.5124197676        1.3802103285
 H         -3.9212521307        0.3355510125        2.3789650180
 H         -5.1434195599       -0.2210551576        1.2616001619
 H         -4.1789806144        3.8309293795       -1.0579208632
 H         -2.5220972229        3.5214619910       -1.5624189501
 H         -3.5169525657        1.6995506610       -2.5276101808
 H         -4.8109236703        1.5868459203       -1.3418370090
 O         -1.9972542075        0.1738940738       -1.6003238129
 C         -1.1936150847       -0.8933422938       -1.2359557374
 O         -0.3359073878       -1.2079089648       -2.0788066924
 H          0.4897807263       -0.6127612854        1.6634479212
 C          1.2510687028       -1.1722105689        1.1331747903
 C          0.8794036856       -2.3047940130        0.4179954496
 C          1.8651505415       -3.0142258652       -0.2539019666
 C          3.1824917639       -2.5884189957       -0.2210329719
 C          3.5460646833       -1.4565644413        0.4842915036
 C          2.5684344410       -0.7462247543        1.1693523694
 N          2.9285477434        0.4193177338        1.8808900281
 S          3.6005870718        1.6418375844        0.9480028669
 O          4.9621988330        1.2956496731        0.6290188856
 O          3.4159933418        2.8543795217        1.7135802832
 C          2.6070749497        1.6710884579       -0.5304381126
 C          1.3567881481        2.2520495375       -0.4613415453
 C          0.5416794913        2.2201915497       -1.5797298867
 C          0.9803279105        1.5973819731       -2.7372600364
 C          2.2362921259        1.0151222757       -2.7886885429
 C          3.0600457903        1.0489505336       -1.6755404285
 H          4.0432130203        0.6076363524       -1.6751774251
 H          2.5690930612        0.5242928362       -3.6887014232
 H          0.3334451655        1.5560349540       -3.5988731753
 H         -0.4394345623        2.6647939677       -1.5403413822
 H          1.0470081850        2.7281825263        0.4561926197
 H          2.1658278002        0.7970194177        2.4256360706
 H          4.5644013087       -1.1039008620        0.5101646862
 H          3.9366550694       -3.1461643633       -0.7549243611
 H          1.6024691280       -3.8965910015       -0.8133429639
 C         -0.5799845547       -2.6832828175        0.4086158811
 H         -0.8791505459       -2.9185510607        1.4408773121
 C         -0.8988090032       -3.8721826182       -0.4729364074
 C         -0.7104945307       -5.2658930228        0.0448308899
 C         -2.0918465163       -4.7167049852       -0.1438358120
 H         -2.6942106683       -5.0977001087       -0.9548319936
 H         -2.6624302026       -4.4491396207        0.7337164424
 H         -0.3661764694       -6.0283974035       -0.6373101521
 H         -0.3437931215       -5.3789799708        1.0538242399
 H         -0.6962859707       -3.6809895002       -1.5206528592
 O         -2.5878431098       -1.4951454365        2.0484540346
