  62
        -98.94613433
 C          1.9295652882        1.2915638753        0.2801081107
 C          1.7194298716       -0.0913722011        0.0676475473
 C          2.8722286105       -0.9586792283        0.3402556034
 C          4.0257082513       -0.4212817301        0.7774670317
 C          5.2815045108       -1.1769848430        1.1179944517
 C          6.1690667022       -1.4912409694       -0.0941611930
 C          5.6359178942       -2.5796964644       -1.0266943493
 H          6.4506968341       -2.8503862349       -1.7012011609
 H          5.3881958729       -3.4671121292       -0.4434803240
 C          4.4218358063       -2.1566109475       -1.8656068915
 H          4.3422387897       -1.0669491955       -1.8681552542
 H          4.5692933383       -2.4678197879       -2.9023333840
 C          3.0915907555       -2.7486544493       -1.3999454591
 H          3.1122046858       -3.8341794269       -1.5196867061
 H          2.2984891056       -2.3544078674       -2.0406408488
 C          2.7316209744       -2.4235387320        0.0555445712
 H          1.6849878113       -2.6922703241        0.2169707844
 H          3.3527431818       -3.0056289475        0.7358888088
 H          6.3256081860       -0.5704223131       -0.6608556782
 H          7.1399824966       -1.8144427632        0.2883452626
 H          5.8483459978       -0.5440720597        1.8041620359
 H          5.0243379751       -2.1035490674        1.6319334454
 O          4.1799103778        0.9136177023        0.9869564942
 C          3.1469258703        1.8009948659        0.7314160182
 O          3.4276680753        2.9964704737        0.9527211508
 H         -1.8061171570        1.8826382413       -0.8444220333
 C         -1.6682420866        1.7431096540        0.2141602677
 C         -0.4198753757        1.8943631556        0.7958002910
 C         -0.2969864541        1.7028205497        2.1704714769
 C         -1.3913988808        1.3546847576        2.9371787730
 C         -2.6324372163        1.1809579691        2.3483157266
 C         -2.7677428008        1.3761516676        0.9801057339
 N         -4.0200957982        1.2317278262        0.3529765949
 S         -4.1945580297        0.1582886275       -0.9210596701
 O         -3.3166790755        0.5271548614       -2.0000572598
 O         -5.6110183945        0.1722070505       -1.2169270281
 C         -3.7509574326       -1.4305093472       -0.2409141028
 C         -4.7680348972       -2.2795651634        0.1529746467
 C         -4.4445712984       -3.4933194271        0.7362184888
 C         -3.1130906185       -3.8327834002        0.9246955808
 C         -2.1064228702       -2.9667400917        0.5284358961
 C         -2.4203693680       -1.7512500529       -0.0609002468
 H         -1.6424887293       -1.0717948242       -0.3718082928
 H         -1.0679888014       -3.2197355777        0.6726716951
 H         -2.8578623636       -4.7761473112        1.3814634974
 H         -5.2278006605       -4.1677692718        1.0430003175
 H         -5.7882041772       -1.9747425170       -0.0166157806
 H         -4.7842388391        1.0990290665        1.0010672866
 H         -3.4883452705        0.9013184028        2.9438680962
 H         -1.2780563684        1.2094195237        4.0009002507
 H          0.6753573980        1.8293537778        2.6278303428
 C          0.8068323910        2.2749760943        0.0036554388
 H          1.1596090321        3.2516696413        0.3664246448
 C          0.5581234314        2.3733217811       -1.4871573562
 C          0.0093933214        3.6363598670       -2.0770336117
 C          1.4398046603        3.2575211266       -2.3143522014
 H          1.7294852523        2.9222131553       -3.2990739521
 H          2.2098967137        3.8118475814       -1.7972540541
 H         -0.6875481187        3.5589990764       -2.8982044225
 H         -0.1926098599        4.4558133910       -1.4037214415
 H          0.2453550497        1.4318849883       -1.9257858585
 O          0.6278396689       -0.5797107178       -0.3224742919
