  62
        -98.94385526
 C         -1.3229023401       -1.4081814696        0.6345336805
 C         -2.0873875403       -0.9837257296       -0.4807554494
 C         -3.0801737002        0.0687274004       -0.2152247492
 C         -3.2009566300        0.5724799104        1.0252301408
 C         -4.1433756700        1.6711363104        1.4207917610
 C         -3.4718016299        3.0475402704        1.3232402809
 C         -2.7503613002        3.2996320304       -0.0014941392
 H         -2.3686284301        4.3231809604        0.0296456907
 H         -1.8753502602        2.6475979304       -0.0708518794
 C         -3.6266312504        3.1220049705       -1.2493934691
 H         -3.4225196705        3.9477659405       -1.9344425791
 H         -4.6805585403        3.1816048005       -0.9735515289
 C         -3.3760616605        1.8289512505       -2.0280015291
 H         -3.8568256007        1.9225877605       -3.0057150391
 H         -2.3022763006        1.7122638605       -2.1996528693
 C         -3.9040946504        0.5436129105       -1.3780350791
 H         -4.9477622104        0.6789184305       -1.0866852289
 H         -3.8547236806       -0.2520644695       -2.1272042791
 H         -2.7384378998        3.1352133304        2.1284132908
 H         -4.2353418699        3.8135939004        1.4736051010
 H         -5.0212959501        1.6376939204        0.7785030511
 H         -4.4532174598        1.5023189004        2.4538842110
 O         -2.4364262799        0.1566860004        2.0669333407
 C         -1.4549702099       -0.8046377696        1.8867505305
 O         -0.7711838697       -1.0326499997        2.9059857804
 H          0.6155086798        0.0029113804       -0.1122254298
 C          1.0249019396       -0.7147877296       -0.8054248999
 C          0.6753737596       -2.0524782896       -0.6788344399
 C          1.1776618595       -2.9559295396       -1.6056013500
 C          1.9966195293       -2.5164642796       -2.6324964101
 C          2.3403412793       -1.1824662996       -2.7536651802
 C          1.8386600895       -0.2696375196       -1.8318904901
 N          2.1340701195        1.0970631504       -1.9228307201
 S          2.1478961497        2.0661532804       -0.5663919101
 O          0.8090604898        2.2808869204       -0.0773891098
 O          2.8629650797        3.2514100104       -0.9895960501
 C          3.1299723799        1.1747591403        0.6273099898
 C          4.4730397599        1.0105108803        0.3457790995
 C          5.2630239900        0.2921389103        1.2273635694
 C          4.6985538802       -0.2540768097        2.3705510195
 C          3.3515590202       -0.0758011497        2.6430219097
 C          2.5572902701        0.6465545603        1.7657470098
 H          1.5054955801        0.7957163503        1.9573893200
 H          2.9033542004       -0.4981148097        3.5285415598
 H          5.3105506803       -0.8193774698        3.0554224694
 H          6.3124977700        0.1575221803        1.0210942192
 H          4.8770624297        1.4592694803       -0.5470063705
 H          2.8349436994        1.3539405304       -2.6005405902
 H          2.9730784592       -0.8451793896       -3.5599911403
 H          2.3739589092       -3.2269128296       -3.3523180302
 H          0.9136379795       -3.9985579096       -1.5404384400
 C         -0.2046169102       -2.4266328296        0.4907603602
 H          0.4026481800       -2.3016664697        1.4037679801
 C         -0.6597472602       -3.8790706196        0.4743073403
 C         -2.0172559201       -4.2764991596        0.9708011705
 C         -1.6924259304       -4.3823694396       -0.4873988895
 H         -1.5612905104       -5.3672904496       -0.9114987896
 H         -2.1279454505       -3.6650241996       -1.1642674595
 H         -2.6852707200       -3.4887026696        1.2888567006
 H         -2.1054331700       -5.1838225696        1.5497695405
 H          0.1500387898       -4.5604370996        0.7161338401
 O         -1.9572226605       -1.4487312796       -1.6424033294
