  62
        -98.94994011
 C         -2.0399088495       -0.7784863667       -0.2196224089
 C         -2.6810048729        0.2026001144        0.5728022062
 C         -2.6857152763        1.5672454670        0.0300183225
 C         -2.0982419383        1.8061078347       -1.1563301857
 C         -2.0199096276        3.1480703093       -1.8238456883
 C         -0.7275743029        3.8909457745       -1.4615377965
 C         -0.4399419276        3.9455726283        0.0390578546
 H         -0.1971108287        2.9440869017        0.4023637235
 H          0.4596013273        4.5512851744        0.1748999013
 C         -1.5783191249        4.5311481644        0.8863623067
 H         -2.2517993529        5.1137210679        0.2558747814
 H         -1.1464437329        5.2150729810        1.6201889547
 C         -2.3834476972        3.4927770467        1.6705859683
 H         -2.9732176508        4.0183563426        2.4269757248
 H         -1.6940271485        2.8256372552        2.1957214283
 C         -3.3540530866        2.6360362412        0.8470308474
 H         -4.0119015872        2.1115233655        1.5465209769
 H         -3.9691965225        3.2805705250        0.2150572626
 H         -0.7951099649        4.9068290715       -1.8565166079
 H          0.1118619883        3.3902049412       -1.9496940172
 H         -2.8846950730        3.7408421783       -1.5316280918
 H         -2.0459620731        2.9927074276       -2.9040929898
 O         -1.4852362931        0.8403376679       -1.8859862579
 C         -1.4191224728       -0.4677530462       -1.4279170061
 O         -0.7950118575       -1.2414391631       -2.1795259138
 O         -3.2316629595       -0.0550400095        1.6782981344
 C         -1.9507833856       -2.2052228076        0.2929713422
 C         -0.5001464609       -2.5696900844        0.4962867018
 C          0.0756071566       -3.7467575638        0.0365019047
 C          1.4232808882       -3.9915036200        0.2392254844
 C          2.2236391459       -3.0683935110        0.8868619385
 C          1.6540321682       -1.8924960158        1.3625593376
 C          0.2997314083       -1.6646075034        1.1833535312
 H         -0.1333048962       -0.7493837384        1.5598796311
 N          2.4280982537       -0.9247770402        2.0336800398
 S          2.4484474643        0.6420027770        1.4441947128
 O          3.4100896266        1.3355471700        2.2730619804
 O          1.1142301396        1.1806491720        1.4222052961
 C          3.0937025320        0.4871153990       -0.2100932366
 C          2.2473674378        0.0785359345       -1.2203151612
 C          2.7637560894       -0.1131798747       -2.4920232966
 C          4.1115468296        0.1065291284       -2.7307065939
 C          4.9498725241        0.5184248038       -1.7050111067
 C          4.4400837092        0.7058326922       -0.4305461791
 H          5.0525103076        1.0275965757        0.3963136488
 H          5.9972354369        0.6902254447       -1.8943597765
 H          4.5086647480       -0.0445262923       -3.7220864608
 H          2.0989260217       -0.4384646937       -3.2766299243
 H          1.2024818481       -0.0873326847       -1.0115478403
 H          3.3747009042       -1.2219596263        2.2266889115
 H          3.2778486307       -3.2533350549        1.0276025038
 H          1.8591738304       -4.9087373078       -0.1261792029
 H         -0.5282977110       -4.4696667530       -0.4866580513
 H         -2.4425362956       -2.1934922732        1.2773390419
 C         -2.6984828440       -3.1561593477       -0.6169269944
 C         -3.2894051080       -4.4184287360       -0.0657199126
 C         -4.1835655200       -3.2846507902       -0.4656546277
 H         -4.7854371132       -3.3885130457       -1.3558933359
 H         -4.6543202780       -2.7020345057        0.3129389043
 H         -3.2816329570       -5.3042071031       -0.6827096785
 H         -3.1593438018       -4.6125157709        0.9882317173
 H         -2.2952781073       -3.1734315809       -1.6230225701
