  62
        -98.94388066
 C          1.6706148134        1.4391193236        0.5434050274
 C          2.6303909565        1.0373953684       -0.4179204323
 C          3.4705779969       -0.1110187241       -0.0389889110
 C          3.2297902038       -0.7625903448        1.1123359737
 C          3.9755802238       -1.9752848823        1.5879102954
 C          3.3215666873       -3.2749302440        1.0982601587
 C          3.0046607319       -3.2822759630       -0.3968151826
 H          2.5746219379       -4.2584274193       -0.6314030154
 H          2.2425147129       -2.5278746841       -0.6039228234
 C          4.2160691783       -3.0318704447       -1.3051834252
 H          4.1948045840       -3.7521881877       -2.1255884547
 H          5.1395627802       -3.2015758574       -0.7502270416
 C          4.2519885771       -1.6387812884       -1.9351745660
 H          3.2921318282       -1.4254910767       -2.4118453718
 H          5.0139252093       -1.6390554196       -2.7191907198
 C          4.5821397488       -0.4860793544       -0.9789945648
 H          5.4913436299       -0.7206118346       -0.4212215375
 H          4.7724852455        0.4028426071       -1.5873336520
 H          3.9896048541       -4.1050906701        1.3349453620
 H          2.3900004655       -3.4252454339        1.6488326232
 H          5.0034311957       -1.9203029725        1.2337916923
 H          3.9784480532       -1.9692953689        2.6794051831
 O          2.2350816541       -0.4054070326        1.9656133313
 C          1.4490738492        0.7042281169        1.7120315063
 O          0.5920681313        0.9338765939        2.5898028750
 O          2.8045488182        1.5941211535       -1.5322179813
 C          0.7455839778        2.6338761586        0.3513080262
 C         -0.4781256812        2.1387893666       -0.3793417830
 C         -0.4627525957        1.8450057767       -1.7386686724
 C         -1.5785991033        1.2991723330       -2.3478493642
 C         -2.7216972233        1.0208538432       -1.6175303954
 C         -2.7402345054        1.3025947745       -0.2582903106
 C         -1.6286769774        1.8697871838        0.3476257744
 H         -1.6400863401        2.0676115353        1.4109944034
 N         -3.8778015063        0.9778824381        0.5053505516
 S         -4.4536191247       -0.5849593777        0.3343725814
 O         -5.3331585537       -0.6477751230       -0.8065509002
 O         -5.0564485518       -0.9160031683        1.6067085553
 C         -3.0197472876       -1.6071096035        0.0332337295
 C         -1.9401930174       -1.5190852713        0.8901120309
 C         -0.8281444039       -2.3091098902        0.6489946701
 C         -0.8171194798       -3.1784343979       -0.4307008841
 C         -1.9103264431       -3.2585486080       -1.2790144964
 C         -3.0208936722       -2.4627203928       -1.0497345800
 H         -3.8879636406       -2.4843252424       -1.6897297502
 H         -1.8974938750       -3.9345597171       -2.1186416186
 H          0.0494962421       -3.7945885567       -0.6101580502
 H          0.0253616823       -2.2291576365        1.3047716643
 H         -1.9590338071       -0.8406451703        1.7286321268
 H         -3.7819928679        1.2114733745        1.4835106495
 H         -3.5931715266        0.5800988520       -2.0745667497
 H         -1.5559767480        1.0757593776       -3.4035193753
 H          0.4393699378        2.0189336261       -2.3042973161
 H          0.4303010451        2.9316399878        1.3607534153
 C          1.3923935007        3.8294479195       -0.3128610676
 C          0.7355955894        5.1688212933       -0.1732318014
 C          2.0218095263        4.8862113977        0.5420699715
 H          2.9250566598        5.3615301823        0.1903234165
 H          1.9905387113        4.7509361123        1.6137452261
 H          0.7529008783        5.8411316522       -1.0170656707
 H         -0.1692433541        5.2244354166        0.4135470046
 H          1.8790973911        3.6022198815       -1.2507398315
