  62
        -98.94938269
 C         -1.5036841739       -1.1121530348       -0.0111452854
 C         -2.4614946006       -0.6174954631        0.9032250781
 C         -2.8857295825        0.7731871204        0.6990946662
 C         -2.3236436821        1.4945805608       -0.2881627121
 C         -2.6778030687        2.9140500603       -0.6226567787
 C         -3.7951627492        2.9789248227       -1.6731766207
 C         -4.9986114537        2.0951154392       -1.3457890308
 H         -5.7369387285        2.2440230784       -2.1364771810
 H         -4.6911376185        1.0476918937       -1.3839535082
 C         -5.6433309403        2.3829393780        0.0171400609
 H         -5.3322821861        3.3653340591        0.3742039246
 H         -6.7278815337        2.4108825156       -0.1068228176
 C         -5.3453243724        1.3368653087        1.0929811118
 H         -6.0163704299        1.5165684847        1.9371454186
 H         -5.5666405079        0.3393451408        0.7052062852
 C         -3.9131439104        1.3318228241        1.6431823222
 H         -3.8957885130        0.6807991720        2.5225799282
 H         -3.6344705006        2.3391848285        1.9609830784
 H         -4.1180331237        4.0170938152       -1.7695078766
 H         -3.3852350962        2.6589983480       -2.6337922540
 H         -2.9850791759        3.4281320640        0.2861352986
 H         -1.7849370797        3.4029758418       -1.0167267724
 O         -1.3925773133        0.9919182802       -1.1357978557
 C         -0.9533970832       -0.3148364527       -1.0133189337
 O         -0.0860708954       -0.6455190043       -1.8460249121
 O         -2.9324907697       -1.3056561129        1.8507892677
 C         -0.9759761310       -2.5261975910        0.1514472108
 C          0.5272564355       -2.4917950623        0.2813959525
 C          1.3750648445       -3.3890349516       -0.3556492020
 C          2.7483267060       -3.2715886147       -0.2234392178
 C          3.3041554200       -2.2492313796        0.5235557479
 C          2.4631928471       -1.3555274720        1.1766864748
 C          1.0901202023       -1.5026794591        1.0782439936
 H          0.4511969431       -0.8010662840        1.5946466412
 N          2.9732520078       -0.2859032179        1.9420021535
 S          2.5989182850        1.2726080207        1.4512777034
 O          3.2626468456        2.1323889961        2.4083155372
 O          1.1719535042        1.4284897777        1.3354563186
 C          3.3913447503        1.4498847186       -0.1378007229
 C          2.8105929447        0.8814327273       -1.2537136309
 C          3.4690194473        0.9838645416       -2.4702413009
 C          4.6849251169        1.6445127377       -2.5505512781
 C          5.2546192356        2.2087162435       -1.4187773691
 C          4.6057529014        2.1071777304       -0.1993089142
 H          5.0058032478        2.5332229994        0.7066458260
 H          6.1990319397        2.7247045984       -1.4827553354
 H          5.1890023146        1.7209114384       -3.5010592313
 H          3.0174384252        0.5423933517       -3.3442404990
 H          1.8595536974        0.3770075727       -1.1762224076
 H          3.9683560866       -0.3458432125        2.1117318607
 H          4.3753513589       -2.1397829962        0.6016096519
 H          3.3945348581       -3.9740173689       -0.7272781155
 H          0.9609034207       -4.1759911693       -0.9645487879
 H         -1.4014285856       -2.8939916006        1.0974203022
 C         -1.4625083391       -3.4095739449       -0.9790674830
 C         -1.6932877121       -4.8733563844       -0.7528887960
 C         -2.8595177032       -3.9486624867       -0.9247130518
 H         -3.4298648807       -3.9979052628       -1.8401426303
 H         -3.4507441716       -3.6998252527       -0.0553972282
 H         -1.4659127562       -5.5613031598       -1.5531909128
 H         -1.4993324589       -5.2634279597        0.2348041358
 H         -1.0857310034       -3.0910905421       -1.9448070389
