  62
        -98.94342724
 C         -1.6217127799       -1.3914945477        0.0176327766
 C         -0.8812901605       -2.0471221723       -0.9919372949
 C          0.4497216415       -2.5508356071       -0.6113181564
 C          0.8790797678       -2.3957720201        0.6552927824
 C          2.1599114127       -2.8348803314        1.3338657481
 C          3.3842714538       -3.2288102171        0.5121378233
 C          4.0104885824       -2.0871108508       -0.2878299023
 H          4.8067416899       -2.5012095466       -0.9099418173
 H          4.4624324535       -1.3783945348        0.4100479032
 C          3.0494446697       -1.2995351417       -1.1741606642
 H          3.6180360237       -0.5168180068       -1.6847498162
 H          2.3084887767       -0.7871408419       -0.5565324397
 C          2.3178330166       -2.1060656995       -2.2456318787
 H          3.0399913593       -2.6345456301       -2.8715755486
 H          1.7876155398       -1.3857175375       -2.8761163029
 C          1.2820421987       -3.1177956988       -1.7236856119
 H          1.7537650907       -4.0501252980       -1.4226329780
 H          0.5924357853       -3.3463765648       -2.5417715041
 H          3.1500728967       -4.0653004020       -0.1396514198
 H          4.1351661958       -3.5824744821        1.2235842930
 H          2.4324223649       -2.0141557983        2.0041059420
 H          1.8852844505       -3.6825428216        1.9712508691
 O          0.1034071986       -1.8031217672        1.6083949728
 C         -1.1279862920       -1.2438219042        1.3113922967
 O         -1.6678995675       -0.6573739559        2.2689710969
 H         -0.9169036536        0.8095216196       -1.0878786177
 C         -1.6567359576        1.3862095551       -0.5524743476
 C         -2.8123536372        0.7600454548       -0.1002960773
 C         -3.7680500771        1.5233662451        0.5569867241
 C         -3.5492521921        2.8725560143        0.7784728562
 C         -2.3783042174        3.4817540182        0.3670799929
 C         -1.4193172238        2.7290381789       -0.3049307525
 N         -0.2267967171        3.3277477346       -0.7316046476
 S          1.1994065688        2.5702719468       -1.1130482314
 O          2.0565406496        3.6477016534       -1.5589819303
 O          0.9729310611        1.5117000562       -2.0651003719
 C          1.9089616848        1.8863177879        0.3805572254
 C          3.2890297704        1.8873977537        0.4634290200
 C          3.9027515452        1.3272397612        1.5712687178
 C          3.1297443825        0.7758089347        2.5820105090
 C          1.7472978443        0.7887386831        2.4905656849
 C          1.1276260868        1.3451238374        1.3811258499
 H          0.0516578153        1.3389522925        1.3038527853
 H          1.1312255212        0.3555137995        3.2633149203
 H          3.6044556140        0.3350705389        3.4448629173
 H          4.9786294889        1.3212833651        1.6425222291
 H          3.8503455993        2.3317018930       -0.3422976154
 H         -0.0794948997        4.2791804809       -0.4330832128
 H         -2.2017869325        4.5280864296        0.5630761037
 H         -4.2961375509        3.4558448376        1.2951830506
 H         -4.6771383854        1.0618253162        0.9055207387
 C         -2.9397467430       -0.7264394092       -0.3358230539
 H         -3.0769129467       -0.8959635073       -1.4144071395
 C         -4.0904943912       -1.3643776344        0.4123007914
 C         -5.4663124163       -1.3742288137       -0.1821026244
 C         -4.6720590206       -2.6426365557       -0.1097407928
 H         -4.9701176714       -3.4010098965        0.5984953360
 H         -4.2538560651       -3.0394688576       -1.0234741244
 H         -5.5963527745       -0.9136880206       -1.1498802778
 H         -6.3143168284       -1.2647072103        0.4770001278
 H         -3.9954362941       -1.2604557620        1.4872515963
 O         -1.3123138050       -2.2033467078       -2.1670833878
