  62
        -98.92854594
 C          2.2858636254        0.4605114081        0.8875420715
 C          3.3510274701        1.0623230407        0.1725695864
 C          4.6420642992        0.3502293260        0.2184657412
 C          4.7464358718       -0.7906417578        0.9214426851
 C          5.9638008536       -1.6684707219        0.9903853315
 C          6.0797986329       -2.5082496420       -0.2978598354
 C          7.2986425000       -2.1773436957       -1.1597267997
 H          8.1873582514       -2.6141432857       -0.6994033548
 H          7.1559199373       -2.6636020913       -2.1270898642
 C          7.5733889202       -0.6875349841       -1.3860928281
 H          8.2858804077       -0.6178890348       -2.2108218641
 H          8.0706068401       -0.2689057509       -0.5098718021
 C          6.3509286389        0.1782791913       -1.7170247475
 H          6.6455474518        0.9057605789       -2.4760437536
 H          5.5557530730       -0.4286019212       -2.1506125342
 C          5.7896920733        0.9764724181       -0.5250974660
 H          6.5976997092        1.2052023859        0.1750820182
 H          5.3960969840        1.9276147026       -0.8956085819
 H          5.1683310580       -2.3647470624       -0.8821027675
 H          6.1217853096       -3.5672930675       -0.0388217587
 H          6.8518002357       -1.0562197472        1.1305698620
 H          5.8460395710       -2.3179977540        1.8579812060
 O          3.7036400909       -1.3313992604        1.6054804597
 C          2.4589756247       -0.7279957896        1.6013809774
 O          1.5972231908       -1.3339590911        2.2712775595
 H         -1.6092665670        0.0206715536        1.0137094456
 C         -1.2323312688        0.1026436404        0.0046734164
 C          0.0458758757        0.5905927390       -0.2215836986
 C          0.5148167971        0.6591326578       -1.5300538166
 C         -0.2870713025        0.2564143596       -2.5823119179
 C         -1.5718125106       -0.2045660671       -2.3548478687
 C         -2.0460919289       -0.2853863252       -1.0508284000
 N         -3.3359636438       -0.7685560330       -0.7822571746
 S         -4.1878415613       -0.0785003344        0.5027334522
 O         -4.0099125090        1.3558602068        0.4950724652
 O         -3.8271944291       -0.7594892148        1.7207258754
 C         -5.8586459267       -0.5021854859        0.0478100701
 C         -6.6360480374        0.4243813267       -0.6210566758
 C         -7.9224653929        0.0719053757       -0.9981997680
 C         -8.4054918691       -1.1944337616       -0.7044984541
 C         -7.6134320398       -2.1132840042       -0.0317941037
 C         -6.3268294663       -1.7672723580        0.3493725971
 H         -5.6781647221       -2.4433272918        0.8818690684
 H         -7.9933547696       -3.0957806953        0.1974237989
 H         -9.4067947495       -1.4663728637       -0.9989876348
 H         -8.5418914421        0.7849091976       -1.5179636850
 H         -6.2214496718        1.3995618956       -0.8199630016
 H         -3.9062339518       -0.8578818727       -1.6120721988
 H         -2.2001094943       -0.5065764310       -3.1789622260
 H          0.0878892866        0.3157605367       -3.5930633525
 H          1.5067458999        1.0430987609       -1.7126743186
 C          0.8853024325        1.0471949910        0.9438829220
 H          0.4322627686        0.6227209654        1.8550672650
 C          0.8736230726        2.5618257969        1.1079039539
 C          0.4574239072        3.5123844488        0.0305019038
 C         -0.4332958241        3.2920010820        1.2139264512
 H         -0.5261048418        4.0785775889        1.9478790647
 H         -1.3410879596        2.7237824825        1.0643670008
 H          0.1516453962        3.1047600957       -0.9197801766
 H          0.9986419527        4.4426392886       -0.0493880500
 H          1.6709012473        2.8996171251        1.7628303660
 O          3.2522897798        2.1333372313       -0.4781404278
