  62
        -98.93954169
 C          2.6285263734        1.2611965715        0.0478997975
 C          2.7466015819        0.2440380115       -0.9294919309
 C          4.0932875875       -0.3189199426       -1.1046087808
 C          5.1109560086        0.1614377737       -0.3669896154
 C          6.5175589966       -0.3605553711       -0.4035537919
 C          6.7256487655       -1.4663869637        0.6407598417
 C          5.6491947858       -2.5517013571        0.6149416079
 H          5.9158217229       -3.2920320217        1.3724397589
 H          4.6937164256       -2.1154808541        0.9159735130
 C          5.4810893892       -3.2475184892       -0.7429954693
 H          5.4081838288       -4.3244611060       -0.5773336132
 H          6.3634352108       -3.0735967465       -1.3599713730
 C          4.2300593096       -2.8309700599       -1.5189068831
 H          3.3521651585       -2.9141861349       -0.8726510704
 H          4.0941636798       -3.5326652841       -2.3462073935
 C          4.2553006351       -1.4183182232       -2.1161238082
 H          5.1700729505       -1.2795508995       -2.6958028200
 H          3.4006338012       -1.3295023595       -2.7930903874
 H          7.7047964972       -1.9190048267        0.4741298898
 H          6.7268033621       -1.0096596132        1.6332306938
 H          6.7323706631       -0.7419955503       -1.3997553832
 H          7.1969392812        0.4650856835       -0.1853792978
 O          4.9616684165        1.1568358197        0.5446111284
 C          3.7188031869        1.7185099243        0.7870053838
 O          3.7144419539        2.6009898513        1.6695916982
 H         -1.2644515018        1.3349815477       -0.6219097521
 C         -0.9550970992        0.6664372321        0.1662986344
 C          0.2959995084        0.8107669379        0.7429260516
 C          0.6598056863       -0.0606631787        1.7665923426
 C         -0.1966403017       -1.0613974080        2.1820635646
 C         -1.4364098232       -1.2176495694        1.5869688156
 C         -1.8150533238       -0.3474425128        0.5748967602
 N         -3.0653509218       -0.5064823364       -0.0478809711
 S         -4.3960873625       -0.8492910508        0.9329500085
 O         -4.4117216543        0.0371474375        2.0754914539
 O         -4.3970481361       -2.2593605154        1.2321824471
 C         -5.7382560265       -0.4652963114       -0.1743413148
 C         -6.3426552910        0.7753936559       -0.1010688976
 C         -7.3696703175        1.0733803409       -0.9828560778
 C         -7.7699625706        0.1322458548       -1.9194783785
 C         -7.1531719384       -1.1086639781       -1.9809281181
 C         -6.1265562141       -1.4137438180       -1.1015509941
 H         -5.6244825123       -2.3670781352       -1.1065266991
 H         -7.4691008607       -1.8381939544       -2.7091206984
 H         -8.5697219678        0.3665615533       -2.6041824789
 H         -7.8531967758        2.0358696040       -0.9358534473
 H         -6.0049537922        1.4726207210        0.6489563459
 H         -3.2685678512        0.2428197180       -0.6952062096
 H         -2.1137405786       -1.9962022840        1.8990295377
 H          0.1025200199       -1.7304294026        2.9755147499
 H          1.6297831022        0.0577162278        2.2317598485
 C          1.2727512971        1.8846679102        0.3270446598
 H          1.4183673276        2.5598351472        1.1830839142
 C          0.8197127256        2.7010298416       -0.8652600164
 C         -0.1048182788        3.8652022964       -0.6760142295
 C          1.3350999191        4.0991595202       -1.0189649915
 H          1.5801350366        4.4526713749       -2.0092137821
 H          1.9941350064        4.4709631437       -0.2477744764
 H         -0.4286615008        4.0881743037        0.3295272286
 H         -0.8474686368        4.0641922052       -1.4340946271
 H          0.7191375441        2.1037556384       -1.7642561401
 O          1.7809133643       -0.1724993442       -1.6207115305
