  62
        -98.94474839
 C          1.8597581165       -0.7574621178       -0.3786828922
 C          2.4597300608       -0.1178187485        0.7330240633
 C          3.5211389066        0.8496631451        0.4163593529
 C          3.8237832413        1.1014886399       -0.8702184256
 C          4.9160356940        2.0217640273       -1.3309710463
 C          6.2393181078        1.2655220095       -1.5150213397
 C          6.6191838561        0.3861158862       -0.3237550226
 H          5.8912798136       -0.4231069263       -0.2314924296
 H          7.5830154693       -0.0731856768       -0.5534672967
 C          6.7150324423        1.1345618215        1.0130775986
 H          6.8066819119        2.2061899233        0.8322508996
 H          7.6225985476        0.8146486581        1.5293111804
 C          5.5466262854        0.8802078567        1.9673839330
 H          5.8178406694        1.2749834397        2.9501095242
 H          5.3919683688       -0.1959361247        2.0785950153
 C          4.2102167458        1.5204864269        1.5709997164
 H          3.5288296978        1.4239424175        2.4215987513
 H          4.3568543787        2.5836065527        1.3688328250
 H          6.1538576955        0.6279839650       -2.3980664970
 H          7.0303464518        1.9949521276       -1.6982724710
 H          4.6198962033        2.4557535677       -2.2876370685
 H          5.0404507858        2.8220710965       -0.6039433851
 O          3.1871660041        0.5061696824       -1.9116571083
 C          2.1974343439       -0.4389496257       -1.6932918780
 O          1.6925465427       -0.9062455109       -2.7351910991
 H         -0.4164646430        0.4872299925       -0.7929762512
 C         -0.8932365216        0.0336573051        0.0677429316
 C         -0.4013649026       -1.1721397330        0.5535589259
 C         -1.0336142131       -1.7522107520        1.6448655013
 C         -2.1052006511       -1.1193472449        2.2523802909
 C         -2.5755623174        0.0921369414        1.7818554159
 C         -1.9645285523        0.6695816246        0.6751811490
 N         -2.4454717958        1.8903913334        0.1741560583
 S         -4.1006251750        2.0978150098        0.0495789792
 O         -4.2825881947        3.0442158828       -1.0287827132
 O         -4.6379499383        2.4925546690        1.3279586279
 C         -4.7471062004        0.4981037116       -0.4054014046
 C         -5.6651998385       -0.1307187351        0.4106605070
 C         -6.1350833530       -1.3836595158        0.0504834896
 C         -5.6777568451       -1.9843252286       -1.1118842870
 C         -4.7578340953       -1.3379496635       -1.9236211815
 C         -4.2865109120       -0.0843069663       -1.5696784791
 H         -3.5735621413        0.4443740257       -2.1825296015
 H         -4.4023917868       -1.8058731277       -2.8277582475
 H         -6.0394920918       -2.9617653849       -1.3893818490
 H         -6.8521317293       -1.8874540594        0.6782963420
 H         -5.9909803065        0.3717546052        1.3068253038
 H         -1.9680475260        2.2137535227       -0.6537015682
 H         -3.3947813654        0.6064447882        2.2574383121
 H         -2.5781141912       -1.5748168405        3.1087938800
 H         -0.6811213670       -2.6949505871        2.0289421527
 C          0.7742715511       -1.7962463839       -0.1595028371
 H          0.4386207838       -2.0989947548       -1.1622827196
 C          1.3435111243       -3.0069794190        0.5499447436
 C          0.7518811634       -4.3641197369        0.3197507791
 C          2.0948926235       -4.0254389177       -0.2519497926
 H          2.9728519421       -4.4794095994        0.1827282796
 H          2.1730781477       -3.8589572488       -1.3168472429
 H         -0.0828224818       -4.4370643081       -0.3606680463
 H          0.7096736402       -5.0558857313        1.1473904062
 H          1.7216693066       -2.7708970885        1.5378326375
 O          2.1288577347       -0.3408371279        1.9260364266
