  62
        -98.93157107
 C         -2.3055747689       -0.5200853477        0.7185723148
 C         -3.1475670194       -0.7928971151       -0.3871059071
 C         -4.1964310726        0.2065244673       -0.6527702942
 C         -4.2675154825        1.3233381141        0.0914229316
 C         -5.2344121524        2.4641853291       -0.0851625917
 C         -6.7198637841        2.1421411253        0.1698707839
 C         -7.5113195562        1.7680138424       -1.0895352742
 H         -8.5006422328        2.2262763048       -1.0303650614
 H         -7.0157561819        2.2045563717       -1.9575341992
 C         -7.7269458700        0.2696216528       -1.3234767462
 H         -8.5250496411       -0.0825520995       -0.6658914143
 H         -8.0674731166        0.1380207048       -2.3527610523
 C         -6.5105842375       -0.6255038273       -1.0862074667
 H         -6.7387714260       -1.6202068162       -1.4741343579
 H         -6.3462159054       -0.7433980314       -0.0123524131
 C         -5.2018087673       -0.1154085448       -1.7201768675
 H         -5.3901522914        0.7555067808       -2.3459472134
 H         -4.7585537370       -0.8969912624       -2.3403234254
 H         -7.1680525867        3.0397453457        0.5989880631
 H         -6.7976647989        1.3538209478        0.9182219039
 H         -4.9093933565        3.2316417714        0.6203683991
 H         -5.1191806213        2.8685155014       -1.0934026200
 O         -3.4005218046        1.5743285281        1.1119457863
 C         -2.4210418355        0.6610134494        1.4560775139
 O         -1.7196202067        1.0049376643        2.4304950342
 O         -3.0467223781       -1.8039131171       -1.1264637386
 C         -1.1965880957       -1.4569206796        1.1712225852
 C          0.0787790240       -1.1112075577        0.4473485988
 C          0.1483971127       -1.1365626933       -0.9427600004
 C          1.3200543990       -0.7896023818       -1.5892165830
 C          2.4389671163       -0.4044832552       -0.8700496437
 C          2.3717721820       -0.3513201142        0.5151156199
 C          1.1968874033       -0.7126379662        1.1634992453
 H          1.1435141350       -0.6576014752        2.2425923558
 N          3.4995329997        0.0396473967        1.2539107304
 S          4.3907933890        1.3666042690        0.7435873747
 O          5.0677313102        1.8397558305        1.9312055693
 O          3.5692867650        2.3279227542        0.0453412891
 C          5.5931305007        0.6628603025       -0.3664589806
 C          6.3379792599       -0.4132456037        0.0751682404
 C          7.2834823819       -0.9658588428       -0.7736974843
 C          7.4701989963       -0.4342252257       -2.0410624534
 C          6.7177478783        0.6490835215       -2.4679536457
 C          5.7689948015        1.2057318288       -1.6241368595
 H          5.1560286270        2.0437937398       -1.9160569032
 H          6.8644436451        1.0616948475       -3.4531981118
 H          8.2064245948       -0.8666232640       -2.7000346315
 H          7.8701982372       -1.8086947399       -0.4454822428
 H          6.1644834884       -0.7954905261        1.0671124769
 H          3.3446674730        0.0712278437        2.2512877842
 H          3.3510844600       -0.1270646051       -1.3724278106
 H          1.3643837810       -0.8174259900       -2.6674433605
 H         -0.7274470363       -1.4253823282       -1.5040464737
 H         -1.0445327571       -1.2217340740        2.2367228482
 C         -1.5777386191       -2.9285040489        1.0828656395
 C         -0.8851771446       -3.9197064866        0.2010785921
 C         -0.6700938597       -3.9625890017        1.6818649762
 H         -1.1062291892       -4.7693252776        2.2512282195
 H          0.2841863277       -3.6225231173        2.0561855741
 H         -1.4927923260       -4.6836052706       -0.2594370071
 H         -0.0733702805       -3.5762958919       -0.4198239191
 H         -2.6423691566       -3.0797577912        1.2253979797
