  62
        -98.93966295
 C          2.4658376703       -0.9460492711        0.5164127727
 C          3.7370698753       -1.0733341657       -0.0976084338
 C          4.7392665995       -0.0740925773        0.2861254904
 C          4.4191934315        0.8837589499        1.1752338280
 C          5.3383463657        1.9595691642        1.6870407178
 C          5.4374425749        3.1871196452        0.7710570896
 C          6.2248177774        2.9721823979       -0.5220399271
 H          6.4018770876        3.9578388255       -0.9569548438
 H          7.1982687069        2.5410938045       -0.2863001649
 C          5.5094504457        2.0964047893       -1.5602193635
 H          4.4472796686        2.0304253026       -1.3125690522
 H          5.5787846703        2.5667544538       -2.5436613108
 C          6.0747758536        0.6823952462       -1.6940978175
 H          5.4694718085        0.1394325007       -2.4244907879
 H          7.0975943016        0.7307309295       -2.0743142638
 C          6.0770262712       -0.1230075383       -0.3882591789
 H          6.2893742016       -1.1672844327       -0.6300289990
 H          6.8541454182        0.2465068208        0.2803668964
 H          4.4271736954        3.5260066615        0.5303310778
 H          5.9269726156        3.9797027101        1.3416373296
 H          4.9341982368        2.2805352298        2.6494794609
 H          6.3332747175        1.5438656012        1.8489600117
 O          3.1884393353        0.9706320550        1.7445348341
 C          2.1770926368        0.0773968477        1.4191030528
 O          1.1000264202        0.2992837855        2.0045615949
 O          4.0210067674       -1.9828314138       -0.9218476703
 C          1.3836939801       -1.9421121613        0.1343548869
 C          0.3272831015       -1.2191129622       -0.6640973757
 C          0.5718445406       -0.9303562310       -2.0039671485
 C         -0.3569405786       -0.2394171820       -2.7590206748
 C         -1.5451253418        0.1902888512       -2.1930076124
 C         -1.7949905107       -0.0864481156       -0.8561647278
 C         -0.8675878857       -0.7963032623       -0.1038679172
 H         -1.0706720942       -0.9949067616        0.9369374038
 N         -2.9885796509        0.3762221639       -0.2558919223
 S         -4.4395766144       -0.2307498710       -0.8705083569
 O         -4.5543349593       -1.6464044062       -0.5868740769
 O         -4.5476515306        0.1448380886       -2.2565391665
 C         -5.6122404566        0.6882774718        0.1054791279
 C         -5.8223506569        2.0179381682       -0.2054790867
 C         -6.7081061443        2.7534848188        0.5652323861
 C         -7.3638320853        2.1508668817        1.6288213078
 C         -7.1427002108        0.8152409342        1.9280575001
 C         -6.2569993649        0.0741197316        1.1612985235
 H         -6.0588690798       -0.9681807151        1.3537372706
 H         -7.6549311847        0.3492523770        2.7544606458
 H         -8.0529342246        2.7255290903        2.2273903706
 H         -6.8841945290        3.7919433286        0.3352371744
 H         -5.2950927973        2.4423077290       -1.0437054921
 H         -2.9738430247        0.2096864654        0.7426639880
 H         -2.2813132246        0.7220806563       -2.7727831499
 H         -0.1541969558       -0.0280933734       -3.7983446386
 H          1.5055460652       -1.2531220719       -2.4440355827
 H          1.8768742367       -2.6630595192       -0.5321680113
 C          0.8404930649       -2.6846703912        1.3368383494
 C          0.0151299290       -3.9175091766        1.1241206159
 C          1.4005005949       -4.0298885131        1.6841078531
 H          1.5159990356       -4.2851715141        2.7267929442
 H          2.1783334642       -4.4270886966        1.0486898990
 H         -0.8233491279       -4.0990456799        1.7793034213
 H         -0.1502411477       -4.2350430412        0.1054180996
 H          0.5765567504       -2.0326450125        2.1607685519
