  62
        -98.94101855
 C         -2.5655658916       -0.2215947588        0.5121168122
 C         -2.2425491523        0.3297698325       -0.7527216505
 C         -2.0719289339        1.7900708753       -0.7927513129
 C         -2.2283563995        2.5083347077        0.3325043111
 C         -2.0931135682        4.0003192894        0.4293049622
 C         -0.6720976723        4.4257788981        0.8198899882
 C          0.4296507065        3.7752509761       -0.0169916448
 H          1.3782493294        4.2103050120        0.3072312700
 H          0.4799182921        2.7078338616        0.2106191876
 C          0.2774959425        3.9590701717       -1.5332107257
 H          1.2557815333        4.2057703483       -1.9508550961
 H         -0.3867856799        4.7988010067       -1.7431672271
 C         -0.2210548192        2.7141436841       -2.2705406495
 H         -0.0224510687        2.8449805383       -3.3378537856
 H          0.3450218214        1.8430609146       -1.9291996815
 C         -1.7157756254        2.4036843623       -2.1168571974
 H         -2.3031354911        3.3065501826       -2.2987671812
 H         -1.9834211127        1.6595081696       -2.8727531111
 H         -0.5053230988        4.1596416139        1.8665348934
 H         -0.6053589835        5.5122756483        0.7305298996
 H         -2.3644400641        4.4422306027       -0.5277657403
 H         -2.7887467409        4.3549896591        1.1925419085
 O         -2.5214235573        1.9435979657        1.5335343155
 C         -2.6539162322        0.5704175451        1.6577559457
 O         -2.8572522178        0.1810380773        2.8274932112
 H         -0.1447475833       -1.0903592293        0.8644388674
 C         -0.2857376389       -1.9375862427        0.2075477699
 C         -1.5702703187       -2.4272867123       -0.0001483667
 C         -1.7322420977       -3.5296480918       -0.8269548194
 C         -0.6325561624       -4.1110823449       -1.4369058834
 C          0.6372318088       -3.5981579419       -1.2562278978
 C          0.8078941860       -2.4848264855       -0.4375313253
 N          2.0756198562       -1.8944895035       -0.3005920987
 S          2.3316096823       -0.5672193176        0.6883145722
 O          2.1826839940       -0.9256977109        2.0847288759
 O          1.5276244400        0.5299010748        0.2163065980
 C          4.0501475868       -0.2591291313        0.3302085959
 C          4.3712855475        0.5227299081       -0.7628159077
 C          5.7067086921        0.7395229333       -1.0631835724
 C          6.6937909635        0.1729299701       -0.2704895713
 C          6.3567447364       -0.6072162378        0.8253704942
 C          5.0228402264       -0.8278676708        1.1305370063
 H          4.7136641934       -1.4164340196        1.9793658290
 H          7.1260799407       -1.0429292297        1.4422532764
 H          7.7323214320        0.3435421982       -0.5062109693
 H          5.9717102465        1.3487932573       -1.9121381245
 H          3.5692182274        0.9482203702       -1.3436567931
 H          2.8510695606       -2.5393352238       -0.3254053034
 H          1.4887367660       -4.0375878145       -1.7517988131
 H         -0.7714163791       -4.9704400600       -2.0754304349
 H         -2.7175987892       -3.9249653724       -1.0111664467
 C         -2.7000340026       -1.7222560230        0.7122761837
 H         -2.5540690863       -1.8755552272        1.7959061921
 C         -4.0746328286       -2.2823978005        0.3760049092
 C         -5.2875463037       -1.4018826025        0.3537886873
 C         -4.7586158624       -1.9806437326       -0.9222329703
 H         -5.3242749942       -2.7678465340       -1.3988422773
 H         -4.2452882375       -1.3284252038       -1.6104822492
 H         -6.2097733314       -1.7930698284        0.7568941289
 H         -5.1436895382       -0.3467451541        0.5376921891
 H         -4.2181785028       -3.2781098482        0.7844220793
 O         -2.1157417132       -0.3496481106       -1.8041811883
