  62
        -98.94434410
 C          0.7988998117        1.4948854246        0.1689738472
 C          1.0828677308        0.3725762929       -0.6474095927
 C          2.2327774863       -0.4415937052       -0.2252070461
 C          2.8305409944       -0.2047042829        0.9548517771
 C          3.9762649928       -0.9819660814        1.5427011586
 C          5.3554631029       -0.5111985650        1.0610090763
 C          5.6913217839       -0.8688720521       -0.3873055497
 H          6.7556267107       -0.6701935288       -0.5283161773
 H          5.5366715912       -1.9369391141       -0.5426172271
 C          4.8987774600       -0.0746591839       -1.4351474461
 H          4.4579595869        0.8085568386       -0.9671773311
 H          5.5784857782        0.2824652612       -2.2122344503
 C          3.7934314184       -0.8687534298       -2.1323379957
 H          4.2377732726       -1.6768505185       -2.7178099994
 H          3.2758631258       -0.1989911744       -2.8242518550
 C          2.7485503435       -1.4718603544       -1.1829557742
 H          1.9036365492       -1.8234870488       -1.7793480957
 H          3.1775671016       -2.3154852298       -0.6441400951
 H          5.4219825532        0.5711034424        1.1936229365
 H          6.1041203288       -0.9718372973        1.7095984735
 H          3.9243349866       -0.8435361284        2.6245226324
 H          3.8560124088       -2.0413098095        1.3171562297
 O          2.4306727565        0.7962487782        1.7831268646
 C          1.4663059461        1.7031272308        1.3807098097
 O          1.2818063671        2.6399145615        2.1833817520
 H         -1.7259513884        0.3617458789       -0.8234648080
 C         -2.2044050766        0.9675145027       -0.0694421604
 C         -1.5969303130        2.1365165710        0.3684024789
 C         -2.2343164520        2.9065486102        1.3342584514
 C         -3.4537673440        2.5128270054        1.8550200581
 C         -4.0488048519        1.3380107067        1.4340983602
 C         -3.4163248981        0.5590086067        0.4693709392
 N         -3.9967581130       -0.6437167835        0.0544229887
 S         -3.1835346516       -1.8456611503       -0.7508809930
 O         -2.9015066424       -1.4416087851       -2.1045140912
 O         -4.0574695646       -2.9949574147       -0.6190931654
 C         -1.6698251429       -2.2097233733        0.1262809587
 C         -0.7636336028       -3.0106966093       -0.5385455777
 C          0.3898570549       -3.4128565359        0.1134196528
 C          0.6288451885       -2.9915686762        1.4116507367
 C         -0.2858664495       -2.1823776688        2.0645344373
 C         -1.4543933251       -1.7975311820        1.4252665490
 H         -2.1751277476       -1.1748989877        1.9300215645
 H         -0.0963750641       -1.8481746178        3.0723944819
 H          1.5297596972       -3.2963956447        1.9201016888
 H          1.0965381329       -4.0500124913       -0.3933871697
 H         -0.9786954224       -3.2973102729       -1.5556932980
 H         -4.7659279091       -0.9879513353        0.6078485111
 H         -4.9925354389        1.0184185421        1.8484746575
 H         -3.9401081789        3.1190001677        2.6039205929
 H         -1.7568636951        3.8077391576        1.6890439060
 C         -0.2484814078        2.5454565676       -0.1710020267
 H          0.0601548593        3.4544133593        0.3642446508
 C         -0.3307613154        2.8691461241       -1.6490126393
 C         -0.8655459183        4.2040820181       -2.0684862016
 C          0.5928833646        3.8965401115       -2.2273154190
 H          0.9844027206        3.7354966141       -3.2205311873
 H          1.2907241162        4.3762787262       -1.5560349443
 H         -1.4802355511        4.2556156267       -2.9540605426
 H         -1.1548353091        4.8956458480       -1.2915226232
 H         -0.5720541612        2.0141886793       -2.2668505746
 O          0.4397620299        0.0485655571       -1.6803696429
