  62
        -98.94065574
 C         -1.6019835711       -1.3684966310        0.7218228128
 C         -1.5984514277        0.0116087519        1.0554919403
 C         -2.8633529158        0.7290768708        0.8718721193
 C         -3.9498231308        0.0593876059        0.4474191746
 C         -5.3227840687        0.6398895481        0.2414292393
 C         -5.5180845192        1.3108765568       -1.1250756114
 C         -4.7922404458        2.6449488720       -1.3037325077
 H         -5.1864854873        3.1042826108       -2.2124546412
 H         -5.0393962523        3.3054202755       -0.4720599552
 C         -3.2673388056        2.5222846651       -1.4329633212
 H         -2.9223755397        3.1391017266       -2.2657084100
 H         -3.0038944650        1.4890960909       -1.6710855105
 C         -2.4862409344        2.9578554354       -0.1929435216
 H         -1.4244893534        2.7782834698       -0.3791149413
 H         -2.6297356727        4.0280838528       -0.0290061783
 C         -2.8691665388        2.2112106047        1.0914496619
 H         -2.1206492486        2.4353125890        1.8550161262
 H         -3.8450803939        2.5418789304        1.4462979945
 H         -5.1986215535        0.6149200129       -1.9043129623
 H         -6.5893180769        1.4833876798       -1.2531215884
 H         -5.5398283129        1.3561002514        1.0344579608
 H         -6.0273932190       -0.1908616193        0.3206435701
 O         -3.9222638075       -1.2689657672        0.1660329169
 C         -2.7444658324       -2.0091768840        0.2431588691
 O         -2.8770935327       -3.1898343783       -0.1274316195
 O         -0.5805728618        0.6096286056        1.4923442517
 C         -0.2657033964       -2.0767188194        0.8553103119
 C          0.5613203316       -1.7917791130       -0.3722440317
 C          0.0520287240       -2.0286194676       -1.6460341137
 C          0.8079618709       -1.7370021554       -2.7658343462
 C          2.0736835826       -1.1907287900       -2.6387332969
 C          2.5890579150       -0.9466975667       -1.3710109967
 C          1.8324056004       -1.2535442705       -0.2472173803
 H          2.2443143697       -1.0632066075        0.7317267202
 N          3.8711695840       -0.4090024994       -1.2170649110
 S          4.2842164456        0.5253325107        0.1010425095
 O          5.4831684730        1.2152124236       -0.3265452460
 O          4.4263204660       -0.3057129350        1.2707175231
 C          2.9726060874        1.7109248985        0.3330518133
 C          2.4399144546        1.8938995238        1.5915054163
 C          1.4662386573        2.8615507240        1.7751086633
 C          1.0422943052        3.6240268194        0.6998191160
 C          1.5816799513        3.4236115649       -0.5617613475
 C          2.5594489491        2.4614080807       -0.7499375575
 H          3.0041375724        2.2927832032       -1.7174340608
 H          1.2418212644        4.0143665136       -1.3977571041
 H          0.2832515799        4.3766814112        0.8453146622
 H          1.0370322822        3.0080342163        2.7527300644
 H          2.7895541986        1.2743351666        2.4018352350
 H          4.3245145029       -0.1067621251       -2.0658050044
 H          2.6603110627       -0.9572468890       -3.5139335516
 H          0.4057443327       -1.9290587204       -3.7491615972
 H         -0.9407193587       -2.4440506291       -1.7430569994
 H          0.2356059065       -1.5827948781        1.7038485469
 C         -0.3626385119       -3.5565000987        1.1891793326
 C          0.0393705599       -4.6455279395        0.2447988304
 C          0.8930057069       -4.3397721264        1.4366072588
 H          0.9136183855       -5.0420848447        2.2561749983
 H          1.8331311601       -3.8360996709        1.2635408735
 H         -0.5519990750       -5.5483327753        0.2453090453
 H          0.4097303416       -4.3696013134       -0.7298666128
 H         -1.2057015318       -3.7737675575        1.8361348769
