  62
        -98.94111010
 C          2.4686494791        1.3652568898       -0.0486998089
 C          3.2972466988        0.7898689394        0.9507258611
 C          4.2354146788       -0.2455295405        0.5067742110
 C          4.2741281091       -0.5947128402       -0.7914719991
 C          5.1976884891       -1.6080488701       -1.4112618192
 C          4.7131292289       -3.0588350701       -1.2850266997
 C          4.8144641386       -3.6590808905        0.1177976001
 H          4.6548667786       -4.7345276304        0.0180719398
 H          5.8245108986       -3.5137889507        0.5021154804
 C          3.7946070885       -3.1009416507        1.1205008701
 H          2.9876636186       -2.5985985604        0.5808307001
 H          3.3387936983       -3.9251611008        1.6739953098
 C          4.3800055384       -2.1332834710        2.1491981505
 H          5.0886958482       -2.6639328712        2.7888289305
 H          3.5637126283       -1.7696125411        2.7786113604
 C          5.0883947686       -0.9163309609        1.5405574809
 H          5.2726077785       -0.1928316211        2.3384098212
 H          6.0439183887       -1.2141529108        1.1092472910
 H          3.6778164890       -3.1141205099       -1.6302014499
 H          5.3210793990       -3.6647088799       -1.9609238898
 H          5.2646607993       -1.3588012298       -2.4725118592
 H          6.1901940490       -1.5158111703       -0.9690940390
 O          3.4638268393       -0.0250483999       -1.7204543491
 C          2.5338327693        0.9510398701       -1.3792392690
 O          1.8573907095        1.3464652504       -2.3482715790
 H         -0.0799995207        1.0611040003       -1.2622036995
 C         -0.5424922709        1.2046120501       -0.2964194595
 C          0.1429082690        1.9092052498        0.6843399108
 C         -0.4594025312        2.0758922895        1.9256238807
 C         -1.7181329313        1.5553649295        2.1725169204
 C         -2.4030968612        0.8660012998        1.1879403300
 C         -1.8062917310        0.6864622601       -0.0534265299
 N         -2.4963132808        0.0023085204       -1.0697312102
 S         -3.1743104210       -1.4875900596       -0.6996434207
 O         -2.4409680813       -2.1586426099        0.3495789792
 O         -3.2735642809       -2.1861511593       -1.9625624909
 C         -4.8124031111       -1.0742622096       -0.1361189309
 C         -5.2735388514       -1.5706633599        1.0673525989
 C         -6.5561283314       -1.2433840499        1.4797092587
 C         -7.3501683012       -0.4304379696        0.6855199088
 C         -6.8726867009        0.0581831706       -0.5216396210
 C         -5.5924805209       -0.2666480593       -0.9406437408
 H         -5.1844077107        0.0906570209       -1.8713683807
 H         -7.4925876108        0.6907899909       -1.1363220109
 H         -8.3469168712       -0.1756425297        1.0093425687
 H         -6.9287904016       -1.6222115902        2.4178069185
 H         -4.6172708515       -2.1925423501        1.6552351788
 H         -1.9820116507       -0.0440248694       -1.9381480001
 H         -3.3837588513        0.4595236098        1.3741511998
 H         -2.1727309015        1.6897491993        3.1420813003
 H          0.0729864587        2.6031524292        2.7036304910
 C          1.5180987991        2.4600263097        0.4067949812
 H          1.9359546689        2.7986807594        1.3680069014
 C          1.5072795093        3.6616666400       -0.5301385885
 C          0.3161388395        4.0924379303       -1.3277864086
 C          0.7531448294        4.9004067199       -0.1454039483
 H          1.2144659495        5.8618485799       -0.3119274279
 H          0.1429783392        4.8488849897        0.7437966316
 H          0.4958095497        4.4786197905       -2.3196729284
 H         -0.5937506305        3.5196943103       -1.2443529689
 H          2.4733156994        3.8095496600       -1.0027647383
 O          3.2640399987        1.1421988891        2.1597100012
