  62
        -98.93900230
 C         -2.4681489126       -0.9808876565        0.3627978401
 C         -2.7969870367        0.1858307090        1.1038552015
 C         -4.1597965314        0.7016902656        0.9426891765
 C         -5.0256647860        0.0516459176        0.1445567292
 C         -6.4614488169        0.4277202059       -0.1020879493
 C         -6.6498225287        1.4999019011       -1.1839411536
 C         -6.2309232393        2.9134050050       -0.7780694265
 H         -6.7093657802        3.1761543553        0.1658711310
 H         -6.6173912602        3.5932328863       -1.5399126324
 C         -4.7135003926        3.1151730581       -0.6618834547
 H         -4.4294114668        4.0423186660       -1.1647318499
 H         -4.1960959884        2.3017500605       -1.1760392847
 C         -4.1922916038        3.2014750734        0.7727790889
 H         -4.5997407500        4.0910107792        1.2584854071
 H         -3.1045914312        3.3055108160        0.7367117660
 C         -4.5213582509        1.9787281234        1.6391581336
 H         -5.5780906578        1.9799035687        1.9060228797
 H         -3.9277829681        2.0369986921        2.5548859923
 H         -7.7111084085        1.5185934041       -1.4420404744
 H         -6.0957038058        1.1975976701       -2.0754529919
 H         -6.9159802169        0.7652950054        0.8297375568
 H         -6.9688210639       -0.4829031054       -0.4275093250
 O         -4.6823795928       -1.0726774240       -0.5334090889
 C         -3.4022519729       -1.6054078428       -0.4646603321
 O         -3.2555911279       -2.6181241739       -1.1773482318
 O         -1.9868934156        0.7643480989        1.8779127543
 C         -1.0570643894       -1.5132067489        0.5335325484
 C         -0.1316005228       -1.1002257596       -0.5866573461
 C         -0.3899853926       -1.4347503488       -1.9119554002
 C          0.5057896291       -1.0881731974       -2.9068539945
 C          1.6830118062       -0.4284263683       -2.6004322295
 C          1.9482560397       -0.0866344204       -1.2797487108
 C          1.0349363352       -0.4122890683       -0.2867315180
 H          1.2497633685       -0.1278706383        0.7332694024
 N          3.1267123062        0.5926496761       -0.9330623110
 S          3.8538568701        0.2094287194        0.5432372327
 O          3.7998889141       -1.2174341317        0.7658891370
 O          3.2781388808        1.0380572350        1.5728994059
 C          5.5316303033        0.7224349344        0.2247836413
 C          5.8466523274        2.0648600656        0.3217492562
 C          7.1427331719        2.4697452115        0.0448416130
 C          8.0962898543        1.5317360296       -0.3227686054
 C          7.7655274535        0.1880850643       -0.4139381198
 C          6.4707236413       -0.2237794150       -0.1398300273
 H          6.1691315743       -1.2576985819       -0.1898319679
 H          8.5097524764       -0.5389585020       -0.6964352550
 H          9.1044952074        1.8497244373       -0.5364077460
 H          7.4044243070        3.5130287296        0.1174870536
 H          5.0749496109        2.7554272955        0.6199988937
 H          3.7979417467        0.6297715658       -1.6879788036
 H          2.3885164871       -0.1753859770       -3.3773244533
 H          0.2923433987       -1.3506304565       -3.9321829109
 H         -1.2959940251       -1.9699631334       -2.1508807357
 H         -0.6829170986       -1.0403048989        1.4527106810
 C         -0.9870530583       -3.0192334168        0.7117761869
 C          0.2729400440       -3.6204991491        1.2561870434
 C         -0.9708701645       -3.5993023530        2.0922408798
 H         -1.4914733021       -4.5290094968        2.2664772581
 H         -1.0137474613       -2.9113640158        2.9243748923
 H          0.6052883491       -4.5657254891        0.8549108307
 H          1.0799402846       -2.9492623734        1.5140825723
 H         -1.5157417671       -3.5670872212       -0.0573533448
