  62
        -98.93452615
 C         -2.0857831615       -1.1937580905        0.3453328843
 C         -1.6269301021        0.1371401487        0.5121343380
 C         -2.6615286717        1.1460904646        0.7823424537
 C         -3.9345231634        0.7664819497        0.9833279186
 C         -5.0968380364        1.6740681525        1.2806536478
 C         -5.7256473894        2.3098297510        0.0328496351
 C         -4.8916821063        3.4055569940       -0.6330004405
 H         -5.5428222226        3.9111911548       -1.3488451609
 H         -4.5979489081        4.1419795153        0.1155746923
 C         -3.6474631348        2.8950174241       -1.3733723555
 H         -3.7423333709        1.8202793993       -1.5439928504
 H         -3.5873759568        3.3713537545       -2.3544243441
 C         -2.3251170699        3.1664813844       -0.6552802491
 H         -1.5183494165        2.7215842527       -1.2432900918
 H         -2.1516994316        4.2433961986       -0.6010332204
 C         -2.2509518482        2.5875237349        0.7633665665
 H         -2.8745091874        3.1695890908        1.4416935865
 H         -1.2150980570        2.6419704066        1.1077678374
 H         -5.9364742099        1.5205309100       -0.6924269206
 H         -6.6806828680        2.7445901910        0.3367320911
 H         -4.7827850999        2.4576886024        1.9710009963
 H         -5.8531812380        1.0595209687        1.7736178792
 O         -4.3087844251       -0.5395563914        0.9673638165
 C         -3.4052908300       -1.5464575413        0.6512713146
 O         -3.8976056637       -2.6874679493        0.6979851568
 O         -0.4210660519        0.4897167489        0.4456798417
 C         -1.1235037921       -2.3184041850       -0.0236409285
 C          0.1712903441       -1.7969380724       -0.5938147500
 C          0.2090654866       -1.2028886668       -1.8523291202
 C          1.4004268448       -0.7515573025       -2.3843991021
 C          2.5820994839       -0.8868522835       -1.6753459641
 C          2.5573094702       -1.4955029357       -0.4295563536
 C          1.3632988926       -1.9655127132        0.0949721722
 H          1.3585058637       -2.4194866121        1.0782271066
 N          3.7749764321       -1.5777818927        0.3058016991
 S          3.9658204411       -0.2600769743        1.3496079920
 O          5.2943304210       -0.4010811618        1.9092834279
 O          2.8972108721       -0.2150975115        2.3262255622
 C          3.9015524820        1.1437489655        0.2640090115
 C          2.6804500580        1.7168272440       -0.0331750822
 C          2.6514800383        2.7930721353       -0.9070815720
 C          3.8282909132        3.2708586561       -1.4629113966
 C          5.0446550209        2.6810330452       -1.1525463473
 C          5.0841153624        1.6042382419       -0.2818683946
 H          6.0034152560        1.1136750358       -0.0066698607
 H          5.9581148409        3.0547303287       -1.5864594343
 H          3.7958981466        4.1081211385       -2.1423662193
 H          1.7035851204        3.2459791926       -1.1506313536
 H          1.7780890386        1.3163933819        0.4024790489
 H          3.8241418086       -2.4131664602        0.8759068510
 H          3.5174418233       -0.5265198393       -2.0718102993
 H          1.4112890795       -0.2800885513       -3.3550990735
 H         -0.7143468289       -1.0697645230       -2.3963242432
 H         -0.8939626079       -2.8830666835        0.8946532563
 C         -1.7367392192       -3.2837328214       -1.0337844940
 C         -0.9007714476       -4.4093107496       -1.5717462831
 C         -2.0483490454       -4.6975491905       -0.6563962686
 H         -2.9439240321       -5.1447597680       -1.0586575081
 H         -1.8384188771       -5.0005691136        0.3580264282
 H         -0.9953936628       -4.6666946388       -2.6153073901
 H          0.1011666409       -4.5158012611       -1.1834502835
 H         -2.4224213509       -2.8064300869       -1.7243299993
