  62
        -98.94137819
 C          2.4010781154        0.5580035322        0.1933600878
 C          1.5895203130       -0.0954874462       -0.7642872286
 C          1.6192518344       -1.5647757228       -0.7457855749
 C          2.3405590914       -2.2042982468        0.1906858093
 C          2.4818082707       -3.6937092002        0.3543565134
 C          1.1867768672       -4.4389646249        0.7318929789
 C          0.4396898208       -5.0426579343       -0.4637743822
 H          1.1456656450       -5.1896533950       -1.2822192412
 H          0.0717662787       -6.0321858392       -0.1849692085
 C         -0.7654384573       -4.2426236980       -0.9667897668
 H         -1.0412273708       -4.6387009814       -1.9468195808
 H         -1.6100396117       -4.4093213786       -0.2939099272
 C         -0.5729581494       -2.7291082017       -1.0813948438
 H         -1.4113471463       -2.3278375881       -1.6556107971
 H         -0.6361044121       -2.2704990312       -0.0910848581
 C          0.7516829529       -2.2887914844       -1.7350153363
 H          0.5450056478       -1.5839432080       -2.5430066099
 H          1.2801077206       -3.1459413771       -2.1503719798
 H          1.4679220169       -5.2491087409        1.4068537660
 H          0.5337705960       -3.7657220799        1.2889277279
 H          3.2210217084       -3.8335395417        1.1457551775
 H          2.8924126638       -4.1154383422       -0.5658763741
 O          3.0745991494       -1.5405719844        1.1254180572
 C          3.1051291643       -0.1574039033        1.1635311463
 O          3.7882000616        0.3140126702        2.0965956998
 O          0.8747213668        0.5080566908       -1.6064467314
 C          2.4236071485        2.0733534416        0.3137970211
 C          1.0067614879        2.5912324755        0.2573321997
 C          0.5720458465        3.5960869637       -0.5966062298
 C         -0.7554458324        3.9903274325       -0.5955833935
 C         -1.6781120473        3.3760295168        0.2310322794
 C         -1.2514820658        2.3686266525        1.0891652449
 C          0.0848182758        2.0098743548        1.1200176147
 H          0.4028656117        1.2263475534        1.7935149755
 N         -2.1526142363        1.6802115944        1.9302837202
 S         -2.3712423333        0.0459977425        1.6221467686
 O         -3.3475737153       -0.3931403566        2.5969870286
 O         -1.1019575116       -0.6345039252        1.6464775088
 C         -3.1087610557       -0.0006638454       -0.0024288327
 C         -4.4686536106       -0.2287088959       -0.0976942379
 C         -5.0706061550       -0.1999517485       -1.3448122848
 C         -4.3075213948        0.0690756146       -2.4713526086
 C         -2.9460492637        0.3016301516       -2.3572477006
 C         -2.3335524637        0.2678340604       -1.1129321411
 H         -1.2724347486        0.4359956108       -1.0125380835
 H         -2.3439957828        0.5109681761       -3.2270019054
 H         -4.7750605456        0.0967707670       -3.4430433986
 H         -6.1293232896       -0.3831414592       -1.4335701702
 H         -5.0200051265       -0.4319452803        0.8061989001
 H         -3.0599460574        2.1215895629        1.9990290952
 H         -2.7185919295        3.6639079770        0.2104325159
 H         -1.0796453767        4.7720951952       -1.2653522232
 H          1.2663646839        4.0564263782       -1.2800312856
 H          2.8093680300        2.2685656203        1.3287701745
 C          3.3694946881        2.7713171804       -0.6517735774
 C          4.5544134161        2.0535413946       -1.2243754345
 C          3.4109430571        2.4383626129       -2.1117869292
 H          3.5609808299        3.2434677406       -2.8161710503
 H          2.7484443142        1.6641861812       -2.4635229955
 H          5.4851687739        2.5934091108       -1.3148439175
 H          4.6781312465        1.0108047491       -0.9687949600
 H          3.5271986504        3.8112932982       -0.3828625476
