  62
        -98.94329992
 C          1.2207071626        0.6832173718        0.5828446012
 C          1.9334016727        0.4971245005       -0.6272899773
 C          2.9268523328       -0.5885050236       -0.6238054123
 C          3.0328622958       -1.3878078195        0.4521217596
 C          4.0344991691       -2.4945979032        0.6062059800
 C          5.3246518828       -1.9886017873        1.2670634204
 C          5.8857583585       -0.7159605757        0.6324506035
 H          5.1877783684        0.1062366897        0.8059322664
 H          6.8097248774       -0.4699766995        1.1600703302
 C          6.1698639627       -0.8286971914       -0.8718616601
 H          7.1469786925       -0.3867761177       -1.0776364391
 H          6.2217516932       -1.8789326298       -1.1611984909
 C          5.1579204347       -0.1073886308       -1.7641808274
 H          5.5663170881       -0.0667033997       -2.7773995709
 H          5.0350907992        0.9224300007       -1.4193744127
 C          3.7697799213       -0.7539729433       -1.8569064180
 H          3.2212406198       -0.2555556981       -2.6618566897
 H          3.8706634439       -1.8101484450       -2.1159330965
 H          5.1164477915       -1.7839841419        2.3198889645
 H          6.0717159271       -2.7827927378        1.2168583973
 H          3.5934070913       -3.2718177853        1.2329801617
 H          4.2550113574       -2.9159426091       -0.3728231974
 O          2.2539294642       -1.2470126393        1.5551765622
 C          1.3322713904       -0.2170384299        1.6450341925
 O          0.6717650444       -0.2136511170        2.7041413335
 H         -1.0062988664       -0.3741605222       -0.2208406387
 C         -1.3278116282        0.5054420822       -0.7576966609
 C         -0.7774233505        1.7388134753       -0.4344329769
 C         -1.1668324736        2.8503931703       -1.1692494673
 C         -2.0807920905        2.7175274229       -2.2009949583
 C         -2.6424187574        1.4907873031       -2.5045855848
 C         -2.2555360356        0.3714431395       -1.7758222919
 N         -2.7956359246       -0.8961791635       -2.0409026787
 S         -3.0375232391       -1.9635211241       -0.7785699616
 O         -1.7890572626       -2.5620770663       -0.3746656095
 O         -4.0410314423       -2.8807712867       -1.2765205454
 C         -3.7276363893       -0.9734093423        0.5364701808
 C         -4.9839431323       -0.4350890927        0.3321068604
 C         -5.5367287222        0.3742154319        1.3103104673
 C         -4.8249367673        0.6358635614        2.4715198721
 C         -3.5688182571        0.0834574943        2.6650318488
 C         -3.0118829298       -0.7305638314        1.6906353391
 H         -2.0329644275       -1.1671121922        1.8179710235
 H         -3.0075132571        0.2827637935        3.5642690136
 H         -5.2506409808        1.2713655715        3.2318564654
 H         -6.5160372496        0.8004628736        1.1645397766
 H         -5.5105477942       -0.6697692225       -0.5785577130
 H         -3.5523120116       -0.9118229630       -2.7082690649
 H         -3.3600431901        1.3934003273       -3.3045216363
 H         -2.3670105636        3.5867237586       -2.7734030402
 H         -0.7410461560        3.8158508666       -0.9513514197
 C          0.1785734722        1.7776554480        0.7331667823
 H         -0.3991081880        1.4880116174        1.6275795270
 C          0.7452220323        3.1607425728        1.0185640675
 C          2.1229899137        3.3327647459        1.5841114601
 C          1.8268879544        3.7764847714        0.1846202207
 H          1.7779784500        4.8372723770       -0.0142418442
 H          2.2144059890        3.1938231065       -0.6353180692
 H          2.7209872264        2.4431356983        1.7228273023
 H          2.2758493918        4.0837973790        2.3448047444
 H         -0.0132933413        3.8355425603        1.4030182189
 O          1.7618570510        1.1939461938       -1.6605210884
