  62
        -98.94321783
 C         -1.5251384529       -1.5221235998        0.1426381612
 C         -2.5258329627       -0.9747866758        0.9845785604
 C         -3.2494495552        0.1871481447        0.4576473653
 C         -2.9228024931        0.6842757100       -0.7491710966
 C         -3.6057157675        1.8291809171       -1.4474796515
 C         -3.1025713996        3.2161582568       -1.0266766660
 C         -3.5199075782        3.6637853903        0.3742837085
 H         -3.2838145831        4.7265340909        0.4566695623
 H         -4.6001985022        3.5627178871        0.4832079954
 C         -2.8131157278        2.9112518102        1.5104491420
 H         -1.9323584356        2.3991827403        1.1150077474
 H         -2.4594713044        3.6251024578        2.2579147639
 C         -3.6941990859        1.8942366704        2.2363327514
 H         -4.5086987483        2.4129872533        2.7470190982
 H         -3.0883224878        1.3926528540        2.9956308093
 C         -4.2973199968        0.8173739856        1.3245719722
 H         -4.7244496382        0.0338818612        1.9556466787
 H         -5.0919590237        1.2447894907        0.7131422849
 H         -2.0140323461        3.2242409796       -1.0980018538
 H         -3.4942570053        3.9375412910       -1.7473598717
 H         -3.4109500400        1.7014179583       -2.5143758238
 H         -4.6818902982        1.7650220579       -1.2825519064
 O         -1.9210504969        0.1646522164       -1.5041713099
 C         -1.1850295556       -0.9353904815       -1.0782570587
 O         -0.2859257083       -1.2728301694       -1.8671611302
 O         -2.8027352604       -1.4385613263        2.1236416966
 C         -0.7600816883       -2.7309416488        0.6517220567
 C          0.7212302160       -2.5052319609        0.4865449163
 C          1.5479441978       -3.3172912072       -0.2770134991
 C          2.8951660327       -3.0239676633       -0.4042452486
 C          3.4469271153       -1.9244626909        0.2264684959
 C          2.6272535963       -1.1038059071        0.9917541723
 C          1.2802724792       -1.4014469159        1.1207424119
 H          0.6420529177       -0.7581864315        1.7151515650
 N          3.1776858177        0.0226128222        1.6403707305
 S          3.8651394283        1.2150578214        0.6873131397
 O          4.9894070959        0.6584811116       -0.0200521223
 O          4.1534430210        2.3039973424        1.5930917686
 C          2.5955666747        1.7079242563       -0.4634984242
 C          1.8486078783        2.8348843324       -0.1830128667
 C          0.8429930888        3.2068711313       -1.0598051308
 C          0.5937070569        2.4403686123       -2.1885273484
 C          1.3475508258        1.3075472287       -2.4519441279
 C          2.3607897404        0.9354527543       -1.5832093517
 H          2.9642094222        0.0606329125       -1.7618742192
 H          1.1394864247        0.7002449585       -3.3173909144
 H         -0.1939934660        2.7232362249       -2.8696126795
 H          0.2605304861        4.0927413666       -0.8592866382
 H          2.0780569874        3.4033304712        0.7041845156
 H          2.5385170872        0.4542901958        2.2932614815
 H          4.4903843502       -1.6748536958        0.1222614821
 H          3.5250598384       -3.6607664201       -1.0068957465
 H          1.1342886254       -4.1667951086       -0.7946450517
 H         -0.9793457843       -2.7559031192        1.7327222817
 C         -1.2379899999       -4.0602215298        0.0874306848
 C         -2.6570648645       -4.2419527602       -0.3593109662
 C         -1.5477312301       -4.2543559128       -1.3655968934
 H         -1.2841263233       -5.1968693890       -1.8230980619
 H         -1.4334368920       -3.4046647506       -2.0196298102
 H         -3.1535954328       -5.1718056513       -0.1256110415
 H         -3.3072498005       -3.3797311009       -0.3249884455
 H         -0.7885446913       -4.9023121541        0.6051719942
