  62
        -98.93412971
 C         -1.8024208162       -1.0187088648        0.4096420835
 C         -2.3784425396        0.1063210545        1.0501384939
 C         -3.8353184248        0.2825939183        0.9229939246
 C         -4.5454795335       -0.6130804997        0.2125251282
 C         -6.0314354311       -0.7211792197       -0.0596018145
 C         -6.9657203317        0.4492687838        0.2347584478
 C         -6.7628727146        1.6700245656       -0.6623183683
 H         -7.0912516788        1.4160955744       -1.6733287417
 H         -7.4051612372        2.4739626307       -0.2962779402
 C         -5.3293848239        2.1860045599       -0.7613577303
 H         -4.6935832489        1.4222539181       -1.2139872150
 H         -5.3291320404        3.0455586837       -1.4372247109
 C         -4.7020904747        2.6339350675        0.5573416131
 H         -5.3434834641        3.3759467071        1.0371242772
 H         -3.7498452569        3.1175764875        0.3218099865
 C         -4.4109665204        1.5106153594        1.5672057633
 H         -5.2959592188        1.2617697268        2.1481784257
 H         -3.6515561030        1.8741709680        2.2658974466
 H         -6.8993063959        0.7299709339        1.2817607420
 H         -7.9831804743        0.0847412309        0.0691099821
 H         -6.1213759190       -0.9940681124       -1.1158263296
 H         -6.3746306848       -1.5901886536        0.5126139899
 O         -3.9495273687       -1.6857167373       -0.3817105262
 C         -2.5817122698       -1.9160307951       -0.3196223378
 O         -2.2213913161       -2.9310874871       -0.9416558276
 O         -1.6996699877        0.9301327028        1.7219643202
 C         -0.2994476386       -1.1904177719        0.5481944939
 C          0.4084723281       -0.5175396359       -0.5999746250
 C          0.1165452720       -0.8583084428       -1.9184047834
 C          0.7538174932       -0.2174458970       -2.9640008350
 C          1.6945317356        0.7678924124       -2.7184474900
 C          1.9871503086        1.1214099742       -1.4065454579
 C          1.3479667338        0.4736865535       -0.3562899133
 H          1.5627188264        0.7786876134        0.6567924819
 N          2.9189151771        2.1307401397       -1.1373622888
 S          3.8680394766        2.1011384646        0.2307333266
 O          3.1042883493        2.4840017271        1.3911082192
 O          4.9880102392        2.9573031616       -0.0973887036
 C          4.4323366101        0.4165819143        0.3991024233
 C          4.3369899973       -0.2084785613        1.6254464068
 C          4.8056495377       -1.5067234022        1.7566140093
 C          5.3533994210       -2.1565728573        0.6616822967
 C          5.4418204196       -1.5153074725       -0.5643566739
 C          4.9821795307       -0.2153918454       -0.6990680622
 H          5.0486657426        0.3102191341       -1.6374701559
 H          5.8666614752       -2.0239774050       -1.4145574230
 H          5.7100179675       -3.1688983044        0.7648849546
 H          4.7352475715       -2.0062311374        2.7096129063
 H          3.8920808059        0.3287588785        2.4481616351
 H          3.4042882321        2.5021236850       -1.9397884733
 H          2.1880355753        1.2713770765       -3.5356458819
 H          0.5182311371       -0.4892256822       -3.9818833164
 H         -0.6173231490       -1.6267258203       -2.1086518560
 H         -0.0394096444       -0.6340466827        1.4628817483
 C          0.1223186162       -2.6388725610        0.7560020239
 C          1.0004440269       -3.3937498143       -0.1929615833
 C          1.5413592522       -2.9494711168        1.1301862637
 H          1.7257767990       -3.6898056291        1.8934966068
 H          2.2404200454       -2.1262935993        1.1317691177
 H          0.7835457607       -4.4401757299       -0.3430807511
 H          1.3500823138       -2.8901366025       -1.0798261198
 H         -0.6487444037       -3.2173734741        1.2538450417
