  62
        -98.93426391
 C         -2.4329492215       -1.2827698484       -0.0408841260
 C         -2.3798341270        0.0133854616       -0.6004419011
 C         -3.6674842699        0.7200895916       -0.7626009248
 C         -4.8002399089        0.1000088446       -0.3823685371
 C         -6.2069981219        0.6352426454       -0.4094448225
 C         -6.4817415026        1.6313775266        0.7297090239
 C         -5.3670773690        2.6429426306        0.9848312437
 H         -5.6274998414        3.2038638138        1.8863064240
 H         -4.4376352910        2.1094131812        1.1933472338
 C         -5.1317405001        3.6498360156       -0.1384526384
 H         -6.0481825218        4.2201343615       -0.3060698712
 H         -4.3640263136        4.3474983252        0.2060461999
 C         -4.6750786506        3.0645406542       -1.4759494834
 H         -4.3320624328        3.8980639556       -2.0960421140
 H         -5.5057036649        2.6069492796       -2.0064301009
 C         -3.5065439397        2.0877818206       -1.3813547183
 H         -3.1185251933        1.9103426415       -2.3922054116
 H         -2.6814140976        2.5649313583       -0.8396188325
 H         -7.4115079908        2.1587195552        0.5105682804
 H         -6.6262059998        1.0591091700        1.6491796557
 H         -6.4163132213        1.0822783740       -1.3765971392
 H         -6.8714280245       -0.2229654214       -0.2882535142
 O         -4.8007274568       -1.1548408805        0.1524844463
 C         -3.6370847714       -1.8728579747        0.3399659072
 O         -3.7985737018       -3.0008960169        0.8483609600
 H          1.4922502087       -1.3832170131       -0.2757161586
 C          1.1069878931       -1.0328911613        0.6660924566
 C         -0.2026315500       -1.2949688921        1.0348677112
 C         -0.6588239131       -0.8249577868        2.2642977881
 C          0.1694425823       -0.0925999849        3.0912850914
 C          1.4681811666        0.1914749010        2.7065335969
 C          1.9381691448       -0.2831219273        1.4882681862
 N          3.2726874215       -0.0450043086        1.1042228923
 S          3.6249082053        0.4279684593       -0.4793067965
 O          2.9677692074        1.6786615854       -0.7896883106
 O          3.3791689571       -0.6732343835       -1.3738440069
 C          5.3832027097        0.6876575083       -0.3229971119
 C          6.2113368842       -0.4184892115       -0.3009723416
 C          7.5764862265       -0.2306967501       -0.1555061751
 C          8.0884931353        1.0528974657       -0.0351988540
 C          7.2454154860        2.1534122879       -0.0607899212
 C          5.8786133990        1.9720665905       -0.2045845259
 H          5.1858306199        2.7976755872       -0.2383912226
 H          7.6462525228        3.1501663109        0.0299471977
 H          9.1516681536        1.1964332477        0.0763755589
 H          8.2354638346       -1.0837619864       -0.1375660096
 H          5.7691913546       -1.3953194289       -0.4066312293
 H          3.7345030132        0.5907191315        1.7427276206
 H          2.1127355883        0.7751387129        3.3467533409
 H         -0.2001205040        0.2694992671        4.0390968848
 H         -1.6790378635       -1.0370497863        2.5563045171
 C         -1.1555171238       -2.0769506971        0.1638545459
 H         -1.4487336780       -2.9872154701        0.7078077060
 C         -0.5674138858       -2.4783497639       -1.1721431950
 C          0.2757014142       -3.7118285682       -1.2823843922
 C         -1.1032357909       -3.6914920462       -1.8686132882
 H         -1.2090912952       -3.6643609022       -2.9427750188
 H         -1.8826628905       -4.2458525597       -1.3659245500
 H          1.1223903392       -3.6948135883       -1.9521455391
 H          0.4351293745       -4.2883009512       -0.3836510994
 H         -0.3033168074       -1.6244301052       -1.7869253052
 O         -1.3049596223        0.5724302774       -0.9483041208
