  62
        -98.94403330
 C          1.4337295082        1.5613153282        0.3580020022
 C          1.7665949763        0.4178683631        1.1246599257
 C          2.9272305308       -0.3490930524        0.6590959046
 C          3.5756598006        0.0324001192       -0.4563737728
 C          4.7847109235       -0.6379507902       -1.0509791616
 C          4.4567324358       -1.8452272062       -1.9403582450
 C          3.9978039660       -3.0986749286       -1.1942948151
 H          4.0157198108       -3.9213632940       -1.9117161665
 H          4.7166660796       -3.3355692607       -0.4093344652
 C          2.5889613548       -2.9985604577       -0.5927424147
 H          2.0488223533       -2.1721439756       -1.0606367148
 H          2.0315007679       -3.9100385133       -0.8168741624
 C          2.5581107616       -2.8116764000        0.9236755721
 H          2.9731741789       -3.6960851229        1.4116392957
 H          1.5155013288       -2.7082590706        1.2310652510
 C          3.3166276493       -1.5771815016        1.4251379675
 H          3.0503589291       -1.4130199045        2.4722036188
 H          4.3923631949       -1.7395020182        1.3597552736
 H          3.6915729954       -1.5492018876       -2.6616781787
 H          5.3623429388       -2.0921750635       -2.4993557498
 H          5.2863370900        0.1145070881       -1.6632770102
 H          5.4627783153       -0.9448022327       -0.2540907312
 O          3.2036691444        1.1185643691       -1.1838832377
 C          2.1293295176        1.9093117840       -0.8002814421
 O          1.9114845792        2.8717403056       -1.5595735812
 O          1.1316684845        0.0621371522        2.1534039897
 C          0.2696082766        2.4256242329        0.8111654275
 C         -0.8303818128        2.3732014567       -0.2194058419
 C         -1.1628124620        3.4477353366       -1.0337763111
 C         -2.1643242791        3.3241515121       -1.9803860150
 C         -2.8700571196        2.1431312438       -2.1122224874
 C         -2.5517477366        1.0632529376       -1.2957922340
 C         -1.5277768375        1.1792203376       -0.3697584298
 H         -1.2762061709        0.3344531083        0.2569984851
 N         -3.2570989082       -0.1464686371       -1.4011203761
 S         -3.7508430803       -0.9329659855       -0.0050614722
 O         -4.9615597406       -1.6287595783       -0.3914578867
 O         -3.8719820429       -0.0191850412        1.1057680477
 C         -2.4971368723       -2.1544015558        0.3086257413
 C         -1.9676586047       -2.2856740641        1.5761259577
 C         -1.0676624698       -3.3102524475        1.8230377942
 C         -0.7133993182       -4.1788601996        0.8021523883
 C         -1.2441717697       -4.0248877677       -0.4697038699
 C         -2.1490346285       -3.0067663929       -0.7208353414
 H         -2.5941186244       -2.8635270560       -1.6913779872
 H         -0.9603612085       -4.6980955627       -1.2625947606
 H         -0.0172209196       -4.9785902611        1.0005335988
 H         -0.6465759262       -3.4225510642        2.8095232993
 H         -2.2636730109       -1.5860949295        2.3418108804
 H         -3.9975223447       -0.1353437226       -2.0883270271
 H         -3.6624626006        2.0526700157       -2.8400557186
 H         -2.4061907913        4.1632342217       -2.6150700121
 H         -0.6279056295        4.3775555007       -0.9382276947
 H         -0.1072657353        1.9489732213        1.7276055266
 C          0.7302757992        3.8283057820        1.1472968207
 C         -0.1288121308        4.7024773446        2.0095468224
 C          1.1512465695        4.1416911641        2.5503320101
 H          1.9853773261        4.8107296236        2.7000408845
 H          1.0948192423        3.3451987494        3.2778849187
 H         -0.1753497013        5.7585355171        1.7915033455
 H         -1.0579139290        4.2859200471        2.3690093935
 H          1.2918504974        4.2942422772        0.3460885447
