  62
        -98.94323137
 C         -2.3884854603       -0.4153712201        0.1063768599
 C         -3.4569824202       -0.3888026095        1.0342777899
 C         -4.4830679002        0.6321714903        0.7970293794
 C         -4.3491506903        1.4851556798       -0.2350720511
 C         -5.3001425403        2.5945792296       -0.5939829817
 C         -6.4961886103        2.1400739391       -1.4419056914
 C         -7.5524692703        1.3254330095       -0.6940779309
 H         -7.8542723102        1.8624183600        0.2057209388
 H         -8.4273552103        1.2621013291       -1.3442203209
 C         -7.1102235903       -0.0970421203       -0.3231906401
 H         -7.9051640403       -0.8028636504       -0.5744227197
 H         -6.2370127303       -0.3742094706       -0.9183328800
 C         -6.7818304002       -0.2933780194        1.1569000000
 H         -6.4448577102       -1.3233866694        1.2992204006
 H         -7.6841429102       -0.1489235891        1.7552194299
 C         -5.6873565702        0.6407533409        1.6894647294
 H         -6.0758901402        1.6531958909        1.7966774689
 H         -5.3755520202        0.2786924914        2.6722829396
 H         -6.9748454803        3.0387185389       -1.8377934419
 H         -6.1228897003        1.5615199786       -2.2900738011
 H         -5.6594003002        3.0784905601        0.3146082080
 H         -4.7251407203        3.3214224292       -1.1716144521
 O         -3.2902877303        1.4455187093       -1.0870615011
 C         -2.2961484503        0.4870744893       -0.9530337406
 O         -1.4050930003        0.5476356788       -1.8211650607
 H          1.0651119397       -1.7805624908       -1.1229829294
 C          1.1402387897       -1.0647976703       -0.3191856498
 C          0.0350537098       -0.7900730699        0.4692911701
 C          0.1707859298        0.1337839007        1.5029511395
 C          1.3737409298        0.7738400208        1.7264877891
 C          2.4711820998        0.5079432904        0.9254123992
 C          2.3514477397       -0.4187576702       -0.0996500002
 N          3.4594776597       -0.6905160707       -0.9184359501
 S          4.9367494297       -1.0228783403       -0.1970110300
 O          5.6617533997       -1.8116357408       -1.1690433695
 O          4.7645243498       -1.6142048795        1.1095927604
 C          5.7161147397        0.5709963298       -0.0489522909
 C          5.8885515797        1.3212634492       -1.1955579413
 C          6.5017724097        2.5600423192       -1.0986389520
 C          6.9320641698        3.0240345799        0.1356220977
 C          6.7550774298        2.2571178706        1.2769725881
 C          6.1418843498        1.0171510005        1.1867876889
 H          5.9797516198        0.3882743610        2.0478513492
 H          7.0910860898        2.6192578111        2.2353324979
 H          7.4086703898        3.9889103800        0.2080873371
 H          6.6414860797        3.1591090687       -1.9841024024
 H          5.5435973797        0.9240973686       -2.1356508011
 H          3.2666954097       -1.3370511711       -1.6694406997
 H          3.4114681898        1.0079181505        1.0903535589
 H          1.4599773198        1.4896156513        2.5299970387
 H         -0.6862320702        0.3433583611        2.1286454294
 C         -1.3012052602       -1.4614531300        0.2718560905
 H         -1.5510433902       -1.9960686894        1.2004594708
 C         -1.3358762403       -2.4453942606       -0.8782764190
 C         -0.8032100903       -3.8347516705       -0.6974837282
 C         -2.2800176003       -3.6065735006       -0.8099322383
 H         -2.7833545303       -3.9162040711       -1.7135951081
 H         -2.8832300703       -3.7040024301        0.0808124518
 H         -0.2937489903       -4.3055073210       -1.5251425679
 H         -0.4009533103       -4.0935655500        0.2704740919
 H         -1.2039957603       -1.9663366412       -1.8422723492
 O         -3.5446465502       -1.1755319290        2.0150780204
