  62
        -98.94477290
 C         -1.8408607243       -0.7412491623        0.4059547476
 C         -2.4607801978       -0.1631563462       -0.7284439498
 C         -3.5187780317        0.8152960198       -0.4437502887
 C         -3.8036895094        1.1443561156        0.8291967149
 C         -4.8326006509        2.1470316213        1.2765986080
 C         -6.2577796775        1.5841199716        1.3634842701
 C         -6.9359283963        1.3200168839        0.0186260385
 H         -7.9927774825        1.1380914517        0.2236238161
 H         -6.8742174119        2.2159024390       -0.6000340848
 C         -6.3686386825        0.1194775389       -0.7516711939
 H         -5.7883937157       -0.5083791394       -0.0716355727
 H         -7.1910879079       -0.4924490349       -1.1287643382
 C         -5.4941394210        0.4904381966       -1.9495211672
 H         -5.1178099011       -0.4323695885       -2.3981019339
 H         -6.0984191851        1.0066812097       -2.6987741367
 C         -4.2884481057        1.3736702529       -1.6022447210
 H         -4.6161815883        2.3909632428       -1.3884518165
 H         -3.6179401851        1.3959297976       -2.4650357204
 H         -6.2337862312        0.6610368952        1.9472197310
 H         -6.8609657446        2.3097222197        1.9140815334
 H         -4.5317973229        2.4774425192        2.2733288847
 H         -4.8201621680        3.0080814238        0.6075519349
 O         -3.1470974122        0.6028810930        1.8903401722
 C         -2.1655059437       -0.3585156056        1.7066772524
 O         -1.6523975632       -0.7776221294        2.7651566220
 O         -2.1482382967       -0.4429327762       -1.9140677005
 C         -0.7500249458       -1.7817360387        0.2259475287
 C          0.4143714088       -1.1798886466       -0.5240187021
 C          1.0418422270       -1.8005789830       -1.5954704608
 C          2.1053403933       -1.1872851274       -2.2365290861
 C          2.5717164660        0.0452707107       -1.8199384410
 C          1.9638684618        0.6652175845       -0.7347616811
 C          0.9008657428        0.0490240903       -0.0937673686
 H          0.4270952198        0.5355153143        0.7505179213
 N          2.4429830113        1.9082493394       -0.2875655053
 S          4.0991507229        2.0999443690       -0.1430267345
 O          4.2770035662        3.0955866689        0.8907635899
 O          4.6636868346        2.4235755907       -1.4295495255
 C          4.7094121521        0.5136333734        0.4003647938
 C          4.2289580557        0.0050535008        1.5909473168
 C          4.6652075803       -1.2402979327        2.0123676969
 C          5.5702182178       -1.9524195983        1.2398703303
 C          6.0476961503       -1.4255837670        0.0501340955
 C          5.6128485601       -0.1812234244       -0.3774958232
 H          5.9547762309        0.2643485460       -1.2973389771
 H          6.7528445009       -1.9807168633       -0.5470348772
 H          5.9042691350       -2.9234530990        1.5695506299
 H          4.2937347975       -1.6506399988        2.9377755764
 H          3.5282945439        0.5838218669        2.1718509104
 H          1.9592739281        2.2677810865        0.5216868718
 H          3.3865740887        0.5431153561       -2.3199653274
 H          2.5753495110       -1.6754568264       -3.0763430719
 H          0.6923265080       -2.7604772088       -1.9374089273
 H         -0.4036617564       -2.0352541085        1.2386872500
 C         -1.3123640828       -3.0288944239       -0.4229420730
 C         -0.6961551201       -4.3662146553       -0.1455575241
 C         -2.0358127859       -4.0240994452        0.4319740047
 H         -2.9128445647       -4.5088041052        0.0298976693
 H         -2.1008948742       -3.8146035980        1.4901266156
 H         -0.6549790665       -5.0911375774       -0.9443831345
 H          0.1497014185       -4.3977068578        0.5242224641
 H         -1.7081813979       -2.8400871494       -1.4140067716
