  62
        -98.94609048
 C         -1.9356226019       -1.2822831421        0.2728976931
 C         -1.7258503091        0.1042019955        0.0855213302
 C         -2.8811960314        0.9689480103        0.3647880638
 C         -4.0357723071        0.4140397984        0.7770132990
 C         -5.3047062016        1.1708180220        1.0401330242
 C         -6.1763664843        1.2488968824       -0.2211529459
 C         -5.4198044958        1.7078786872       -1.4677619360
 H         -4.6801148049        0.9497651815       -1.7355624317
 H         -6.1410267621        1.7550318494       -2.2866010833
 C         -4.7216408077        3.0672478045       -1.3220688617
 H         -4.9183690863        3.6595053500       -2.2182373733
 H         -5.1429863063        3.6111941928       -0.4758948959
 C         -3.2019710416        2.9859082229       -1.1667097712
 H         -2.7937174639        3.9925423790       -1.2904527022
 H         -2.7850534426        2.3642200837       -1.9632456946
 C         -2.6970893272        2.4487025954        0.1782721461
 H         -1.6175967092        2.6204974665        0.2189330060
 H         -3.1656055806        3.0017100523        0.9948336920
 H         -6.5904685141        0.2572959058       -0.4181171684
 H         -7.0061713823        1.9304674295       -0.0254876283
 H         -5.8597447243        0.6503079618        1.8223861736
 H         -5.0593869978        2.1726370270        1.3871684701
 O         -4.1935445076       -0.9221936367        0.9592876757
 C         -3.1539698239       -1.8026388021        0.7087271789
 O         -3.4305976124       -3.0013675200        0.9163234566
 H          1.8135235284       -1.8817687664       -0.8328908750
 C          1.6680003578       -1.7399841465        0.2243586609
 C          0.4140013888       -1.8835112380        0.7957505411
 C          0.2812064101       -1.6915951946        2.1694154544
 C          1.3714284761       -1.3490284639        2.9445650393
 C          2.6181079362       -1.1821763175        2.3657259865
 C          2.7635846195       -1.3791231091        0.9987985958
 N          4.0221614769       -1.2443056216        0.3829052762
 S          4.2179425299       -0.1951033208       -0.9075347093
 O          3.3517598391       -0.5788735446       -1.9909083188
 O          5.6378579599       -0.2221456072       -1.1850138702
 C          3.7748110218        1.4093595298       -0.2647812016
 C          2.4441920341        1.7379760460       -0.0995458528
 C          2.1304122256        2.9684380103        0.4578312410
 C          3.1373825842        3.8415381620        0.8374948753
 C          4.4688782923        3.4940347250        0.6645239545
 C          4.7920754938        2.2653706293        0.1132402485
 H          5.8122636849        1.9538115847       -0.0434665356
 H          5.2523610794        4.1739038061        0.9584186693
 H          2.8823194169        4.7967785468        1.2689385971
 H          1.0918606553        3.2272971791        0.5902876914
 H          1.6656377974        1.0530788804       -0.3964101793
 H          4.7808837957       -1.1078804513        1.0364331200
 H          3.4706097178       -0.9069925576        2.9681744279
 H          1.2503808128       -1.2027728587        4.0073168839
 H         -0.6952695126       -1.8129356122        2.6193009658
 C         -0.8073058944       -2.2581614169       -0.0075868954
 H         -1.1589186293       -3.2402838839        0.3414887298
 C         -0.5490014164       -2.3382549148       -1.4979309448
 C          0.0012720856       -3.5944427680       -2.1008283648
 C         -1.4268877212       -3.2098700117       -2.3423518385
 H         -1.7096073654       -2.8612329644       -3.3244693399
 H         -2.2012261411       -3.7695191737       -1.8375000026
 H          0.1973915389       -4.4231002634       -1.4371081468
 H          0.7039419184       -3.5073704552       -2.9161484882
 H         -0.2314025083       -1.3918841796       -1.9223099257
 O         -0.6311784987        0.5967752640       -0.2915186443
