  62
        -98.94914605
 C          1.2845314664        1.5359441115        0.5431471242
 C          2.2274878151        1.1929289717       -0.4560907941
 C          3.2012213452        0.1599953898       -0.0833996307
 C          3.1604155311       -0.3904373330        1.1432494461
 C          4.0723454783       -1.4688018835        1.6608089690
 C          3.6267838433       -2.8840513159        1.2667348015
 C          3.8615566748       -3.2554357775       -0.1981131052
 H          4.8938271184       -3.0313781556       -0.4706409214
 H          3.7288064259       -4.3363420752       -0.2776111877
 C          2.9043447194       -2.5723248772       -1.1852476558
 H          2.0255957624       -2.2047404387       -0.6484294765
 H          2.5387973732       -3.3099997593       -1.9043116303
 C          3.5271614718       -1.4300466179       -1.9893406106
 H          4.2961877225       -1.8306646626       -2.6543654496
 H          2.7439311455       -0.9838130934       -2.6078683984
 C          4.1517467512       -0.3158963766       -1.1396288478
 H          5.0821791414       -0.6615505741       -0.6898270111
 H          4.3705166691        0.5303898150       -1.7957522209
 H          2.5637707229       -2.9942699407        1.4973584616
 H          4.1801243096       -3.5883374036        1.8927528926
 H          5.0901586760       -1.2935000218        1.3113325077
 H          4.0591618082       -1.3938664402        2.7503700257
 O          2.2580937737       -0.0110492306        2.0861751097
 C          1.2708864751        0.9155922423        1.7914097167
 O          0.4508992540        1.1043843010        2.7149871303
 H         -0.3759865981       -0.0870018733       -0.1786638021
 C         -0.8888675263        0.5280783604       -0.9003948043
 C         -0.7113938751        1.9035193125       -0.8754261656
 C         -1.3612423038        2.6686579138       -1.8361345069
 C         -2.1502937310        2.0586200075       -2.7966668920
 C         -2.3241638921        0.6859591605       -2.8143538637
 C         -1.6815701469       -0.0871073320       -1.8542695849
 N         -1.8080114510       -1.4836410823       -1.8259200072
 S         -1.8164772900       -2.2907222315       -0.3612013098
 O         -0.4995913880       -2.3058975830        0.2240650978
 O         -2.3790416506       -3.5862870679       -0.6783091364
 C         -2.9663765180       -1.3733039927        0.6481138285
 C         -2.5301161606       -0.5626324458        1.6753852165
 C         -3.4645330729        0.1727686072        2.3892286169
 C         -4.8095361062        0.0858686870        2.0682124310
 C         -5.2338614112       -0.7411104782        1.0385429874
 C         -4.3055410531       -1.4747517848        0.3198428526
 H         -4.5951146413       -2.1386567126       -0.4784691204
 H         -6.2813180024       -0.8127190896        0.7940126164
 H         -5.5295904454        0.6633552007        2.6261379311
 H         -3.1234103428        0.8114489919        3.1885800189
 H         -1.4792517670       -0.5037515106        1.9136887919
 H         -2.4734319482       -1.8716963564       -2.4775315540
 H         -2.9378516503        0.2157710579       -3.5670548868
 H         -2.6420729750        2.6632475678       -3.5434260819
 H         -1.2421611420        3.7398643937       -1.8382029688
 C          0.1524030447        2.4917595033        0.2174331455
 H         -0.4621072725        2.5574261730        1.1284639405
 C          0.6799626742        3.8721369961       -0.1145932850
 C         -0.1140784907        5.0923047879        0.2409216666
 C          1.1309588093        4.7598393169        1.0051777096
 H          2.0093438283        5.3699901721        0.8583121833
 H          1.0293120111        4.3774708793        2.0107847625
 H         -0.0888302875        5.9370234911       -0.4309465851
 H         -1.0626123404        4.9475101034        0.7357708896
 H          1.2615758301        3.8848873087       -1.0287113169
 O          2.2503126640        1.7102627228       -1.6031799564
