  62
        -98.94354757
 C         -1.9620304831       -1.4243752164        0.1748029460
 C         -2.1684983411       -0.4634409436        1.1978211216
 C         -3.0971518398        0.6272281644        0.8860572691
 C         -3.6831123551        0.6751911109       -0.3242913727
 C         -4.6981886129        1.6883348472       -0.7798372068
 C         -4.0937805507        3.0010083762       -1.2954228588
 C         -3.5121559480        3.9141043559       -0.2159699083
 H         -3.3323231160        4.8854765125       -0.6808003747
 H         -4.2529584597        4.0632927667        0.5701610789
 C         -2.1985082960        3.4095317753        0.3968334506
 H         -1.7593962176        2.6498098945       -0.2536433180
 H         -1.4883842447        4.2365963536        0.4536217420
 C         -2.3301324433        2.8332817798        1.8064457529
 H         -1.3498663185        2.4625292335        2.1169848577
 H         -2.6280932951        3.6227836356        2.5001793982
 C         -3.3322677405        1.6783572084        1.9288079908
 H         -4.3521594996        2.0572310558        1.8612042226
 H         -3.1980586491        1.2102682646        2.9072626628
 H         -3.3211259608        2.7646764182       -2.0303287399
 H         -4.8889076165        3.5440093362       -1.8115102853
 H         -5.3909044705        1.9012889142        0.0351894342
 H         -5.2552196190        1.2218579034       -1.5952828611
 O         -3.4292113431       -0.2420444694       -1.2925477053
 C         -2.5561959813       -1.3011004322       -1.0820004693
 O         -2.4181658115       -2.0372500883       -2.0765677874
 O         -1.6136281053       -0.5269714387        2.3282406146
 C         -1.0346476770       -2.5868462731        0.4918755041
 C          0.3265156726       -2.3186904200       -0.1030409511
 C          0.6397394929       -2.6242975830       -1.4224451656
 C          1.8949245090       -2.3326879150       -1.9265081083
 C          2.8602789064       -1.7379934120       -1.1329950143
 C          2.5517886057       -1.4136424673        0.1818467049
 C          1.2907042114       -1.7035894223        0.6850359577
 H          1.0455820490       -1.4414634905        1.7058463353
 N          3.5230931124       -0.8202338975        1.0087392540
 S          4.3903490465        0.4974539775        0.4549483020
 O          5.2785307467        0.0780098703       -0.5990647719
 O          5.0131318368        1.0566023825        1.6324574513
 C          3.1674668343        1.6247037481       -0.1855105228
 C          2.5082490933        2.4463891058        0.7073423001
 C          1.5242182627        3.2982023660        0.2346256744
 C          1.2088458111        3.3052450705       -1.1156467834
 C          1.8763621413        2.4708707002       -1.9984931581
 C          2.8668787999        1.6208664968       -1.5324114101
 H          3.4146996107        0.9668996174       -2.1903078401
 H          1.6284809692        2.4786639361       -3.0478469978
 H          0.4400322933        3.9671103295       -1.4821950423
 H          1.0056277331        3.9493163854        0.9199219722
 H          2.7876494216        2.4178083142        1.7484071871
 H          3.1996379584       -0.6532347134        1.9506135134
 H          3.8460599393       -1.5215460498       -1.5114331625
 H          2.1277957444       -2.5778413622       -2.9517824374
 H         -0.1114511309       -3.0679664546       -2.0555857230
 H         -0.9258336452       -2.5717416967        1.5850182575
 C         -1.6021232664       -3.9317240700        0.0891088063
 C         -1.0126749704       -5.1735846945        0.6852600001
 C         -2.3830459346       -4.7241655787        1.0924486448
 H         -3.2362392057       -5.2900393939        0.7495589707
 H         -2.5096142712       -4.3005188141        2.0782485830
 H         -0.9220461375       -6.0510820909        0.0638558765
 H         -0.2079335519       -5.0529314864        1.3949016480
 H         -1.9370101844       -3.9749308255       -0.9385747053
