  62
        -98.93865640
 C          1.8630163827        0.9846794999        0.3892022680
 C          2.1806003451       -0.1567521387       -0.3824615332
 C          3.4951411818       -0.7795877071       -0.1323529337
 C          4.3106106187       -0.2679814534        0.8074910777
 C          5.6663904564       -0.7196435434        1.3088631456
 C          6.5014446634       -1.7220437660        0.5161490676
 C          7.0111446092       -1.2082305388       -0.8298037137
 H          7.5084233593       -2.0339119244       -1.3436005159
 H          7.7590678625       -0.4328665792       -0.6455104774
 C          5.9501318276       -0.6150392436       -1.7533441292
 H          6.4486538082       -0.2954320439       -2.6725053706
 H          5.5215666990        0.2778521254       -1.2936499746
 C          4.8189575855       -1.5639754385       -2.1445991602
 H          5.2369933022       -2.4797022023       -2.5672705277
 H          4.2334436186       -1.0720918275       -2.9259534693
 C          3.8498318019       -1.9445300986       -1.0115162551
 H          4.2383187268       -2.7681372946       -0.4171990874
 H          2.9150991953       -2.2835722118       -1.4673923424
 H          5.9537120333       -2.6508701976        0.3861353561
 H          7.3743214579       -1.9544250073        1.1323956164
 H          6.2489028098        0.1960341060        1.4521097787
 H          5.4904300668       -1.1313709109        2.3090120304
 O          3.9518120504        0.8215753304        1.5466632903
 C          2.7496506121        1.4725513989        1.3540651493
 O          2.5856200812        2.4658316544        2.0899043683
 H         -0.5149084768       -0.6565104606       -0.2634299236
 C         -1.0211925962       -0.1570829136        0.5492608064
 C         -0.5768936471        1.0917271214        0.9600042982
 C         -1.2312171544        1.7154813455        2.0153774394
 C         -2.3026494474        1.1030997040        2.6428292860
 C         -2.7436869581       -0.1410221841        2.2293521268
 C         -2.0906773607       -0.7741929759        1.1799203658
 N         -2.5463754911       -2.0344379592        0.7374511969
 S         -4.1404696273       -2.0616441125        0.2160409945
 O         -5.0135874806       -2.1172047130        1.3617354368
 O         -4.2342610698       -3.1710800928       -0.7061846884
 C         -4.3487265542       -0.5074607565       -0.6343444020
 C         -5.0728961152        0.5082686677       -0.0447085554
 C         -5.1514672602        1.7335879728       -0.6869084716
 C         -4.5038830738        1.9219125240       -1.8976913436
 C         -3.7819772471        0.8903249716       -2.4781493394
 C         -3.6983546561       -0.3360640135       -1.8401823388
 H         -3.1470832760       -1.1604116138       -2.2641174300
 H         -3.2798047022        1.0367730932       -3.4211878417
 H         -4.5621642396        2.8782906438       -2.3931612510
 H         -5.7122774517        2.5378901792       -0.2389717677
 H         -5.5599274948        0.3193948366        0.8977503863
 H         -1.9457076444       -2.4374449005        0.0316618627
 H         -3.5812767328       -0.6314701453        2.6987233539
 H         -2.8003180523        1.6000506191        3.4614667835
 H         -0.8871898858        2.6833090208        2.3499812709
 C          0.5678181372        1.7696893313        0.2461236126
 H          0.7518597912        2.7291751163        0.7471666562
 C          0.1952362274        2.0468620545       -1.1986626608
 C         -0.7463281015        3.1718143731       -1.5002565999
 C          0.7031651121        3.2889956525       -1.8633567742
 H          0.9832575798        3.2376127751       -2.9048571059
 H          1.3254254530        3.9507149451       -1.2780880478
 H         -1.1088947726        3.7560399695       -0.6683783957
 H         -1.4666678701        3.0400651167       -2.2921779612
 H          0.1246428876        1.1530115017       -1.8035561127
 O          1.4171460239       -0.6653447189       -1.2480491655
