  62
        -98.93948546
 C          2.6200054591        1.1952200827        0.2900448772
 C          2.5332216607        0.1665986632       -0.6808426773
 C          3.7461318738       -0.6499124625       -0.8577800222
 C          4.8380502669       -0.3889711869       -0.1180466597
 C          6.1191777753       -1.1687793841       -0.1688549152
 C          6.1158396678       -2.3113082926        0.8563196071
 C          4.8526972500       -3.1715486946        0.8182194429
 H          4.9761507133       -3.9628400298        1.5607973008
 H          3.9990273035       -2.5665811342        1.1326925303
 C          4.5516877301       -3.7975264497       -0.5506956278
 H          5.4495131569       -3.7838048150       -1.1697573992
 H          4.2755034313       -4.8437548973       -0.4036482037
 C          3.4010548364       -3.1362978881       -1.3118883652
 H          3.1320319861       -3.7843198214       -2.1502536668
 H          2.5253029481       -3.0617172621       -0.6620952651
 C          3.6932085836       -1.7444125236       -1.8863775530
 H          4.6168823363       -1.7721222525       -2.4682040522
 H          2.8702427039       -1.4843347334       -2.5586377279
 H          6.9911916445       -2.9381866325        0.6768638119
 H          6.2062228745       -1.8797530789        1.8558906460
 H          6.2563484441       -1.5669879008       -1.1723114046
 H          6.9432924978       -0.4905220112        0.0590047760
 O          4.8808051425        0.6006150777        0.8105830512
 C          3.7748625144        1.3978787076        1.0512293270
 O          3.9405004217        2.2397088757        1.9566093182
 O          1.5112881139       -0.0677544359       -1.3751209467
 C          1.4465993851        2.1096187902        0.6010612324
 C          0.1818510536        1.3010975666        0.7506233889
 C          0.0517913276        0.4602445523        1.8523532792
 C         -1.0886924280       -0.2986119208        2.0328729471
 C         -2.1242129544       -0.2379851377        1.1167700235
 C         -2.0033469559        0.5939758783        0.0127661614
 C         -0.8596618858        1.3627830107       -0.1608376929
 H         -0.7715650776        1.9903340267       -1.0342999296
 N         -3.0446579855        0.6430953297       -0.9300419046
 S         -4.6005585419        0.9375980349       -0.3797819756
 O         -5.3020355357        1.5098342402       -1.5086277480
 O         -4.5912944038        1.7229714486        0.8332615950
 C         -5.2616358883       -0.6826855018       -0.0512112340
 C         -5.2298751417       -1.6191237780       -1.0659246823
 C         -5.7569020486       -2.8787815657       -0.8300536311
 C         -6.3070704370       -3.1779574644        0.4076112463
 C         -6.3334768141       -2.2259728495        1.4151585096
 C         -5.8064471734       -0.9643818840        1.1861726030
 H         -5.7997613728       -0.1944440605        1.9412041506
 H         -6.7612282948       -2.4605461225        2.3767138618
 H         -6.7173212703       -4.1590946348        0.5878336268
 H         -5.7370178310       -3.6221892317       -1.6106834967
 H         -4.7962161020       -1.3470283969       -2.0138158412
 H         -2.8324996188        1.2031868113       -1.7427668431
 H         -3.0156326171       -0.8298130660        1.2476854138
 H         -1.1727054600       -0.9459623707        2.8927580182
 H          0.8636188646        0.4080030234        2.5657697046
 H          1.6816085647        2.5447549282        1.5864218513
 C          1.2974453724        3.2813179477       -0.3585472035
 C          2.5045722038        3.9399246441       -0.9548703078
 C          1.5639701768        3.1682813507       -1.8284130958
 H          0.9287550339        3.7201860299       -2.5065759853
 H          1.8812319215        2.2109648413       -2.2100846825
 H          2.5167890436        5.0166748964       -1.0325339088
 H          3.4691057971        3.5074095991       -0.7317710477
 H          0.4883249059        3.9421792604       -0.0601186403
