  62
        -98.94515846
 C          2.2624149340        0.7421993221       -0.0168982164
 C          3.2556145106        0.6605148211        0.9919427189
 C          4.1254059975       -0.5213301485        0.9505894796
 C          3.9111115383       -1.4611066250        0.0118553145
 C          4.7496267529       -2.6913270163       -0.1766715208
 C          5.8938835826       -2.4368098460       -1.1681811505
 C          6.6949922942       -1.1681750246       -0.8750040420
 H          7.4918091839       -1.1079935484       -1.6194659767
 H          6.0508180044       -0.2983961895       -1.0227663856
 C          7.3047989903       -1.1133312101        0.5326827712
 H          8.3381566805       -0.7694158132        0.4531709691
 H          7.3289097139       -2.1142458240        0.9649532611
 C          6.5918471727       -0.1625518908        1.4959764937
 H          7.2242210891       -0.0356054792        2.3785968469
 H          6.4824722999        0.8188363064        1.0277492226
 C          5.2116209681       -0.6197610355        1.9847025069
 H          5.2780862684       -1.6361415918        2.3780223322
 H          4.9099950205        0.0451225948        2.7992122666
 H          6.5597912030       -3.3015528194       -1.1553061462
 H          5.4692256426       -2.3498525963       -2.1710466593
 H          4.1110241999       -3.4855669023       -0.5672414683
 H          5.1510831171       -3.0020327266        0.7859644462
 O          2.9227810043       -1.3699798909       -0.9134838797
 C          2.0804899549       -0.2680295388       -0.9613811626
 O          1.2392750897       -0.3165831185       -1.8802380073
 O          3.4083842757        1.5384636621        1.8821879487
 C          1.3461194342        1.9556276820       -0.0160226155
 C         -0.0341667273        1.5018226178        0.3886429390
 C         -0.3252299857        1.3332225276        1.7397851556
 C         -1.5571183851        0.8527860497        2.1413597422
 C         -2.5212205084        0.5198122950        1.2052235111
 C         -2.2333424928        0.6662532724       -0.1443939772
 C         -1.0037334033        1.1726784949       -0.5452293888
 H         -0.7900204432        1.2693848904       -1.5978028684
 N         -3.1996253531        0.3174015718       -1.1038861032
 S         -3.9905085362       -1.1534347650       -0.9330728227
 O         -3.1831590242       -2.1239996613       -0.2304734338
 O         -4.4155547135       -1.5130450199       -2.2686866208
 C         -5.4296189986       -0.7399032678        0.0335340147
 C         -5.7240473500       -1.4593212379        1.1750681434
 C         -6.8546401551       -1.1261481386        1.9050519572
 C         -7.6671945985       -0.0855579999        1.4821604869
 C         -7.3592448694        0.6256533372        0.3318921156
 C         -6.2314372058        0.2967739012       -0.4028485017
 H         -5.9586411392        0.8222348928       -1.3026165254
 H         -7.9932833695        1.4344784402        0.0062641982
 H         -8.5455364305        0.1724647170        2.0524388676
 H         -7.0953809187       -1.6786645171        2.7990738185
 H         -5.0596185578       -2.2565130958        1.4689052121
 H         -2.8782539672        0.4366427262       -2.0542278125
 H         -3.4794835123        0.1320166811        1.5099163788
 H         -1.7700797391        0.7319517981        3.1926524846
 H          0.4355823562        1.5711029523        2.4700976598
 H          1.7349431156        2.6101998972        0.7755093192
 C          1.3870636926        2.7048246468       -1.3311786127
 C          0.8252429656        4.0924973885       -1.4007220567
 C          2.3063739214        3.8789091682       -1.4760653275
 H          2.8030706978        4.0292594492       -2.4229728114
 H          2.9068909307        4.1516066904       -0.6206835320
 H          0.3027473858        4.3934171608       -2.2958239521
 H          0.4185100821        4.5088459894       -0.4917500702
 H          1.2673225701        2.0639674126       -2.1963149628
