  62
        -98.94136531
 C         -2.3782861153       -1.0801126893       -0.5816330071
 C         -3.5335735979       -0.7081445847        0.1558175016
 C         -4.1302057491        0.5884392914       -0.1776400507
 C         -3.5779110544        1.3458760802       -1.1422892391
 C         -4.0747695233        2.6862287998       -1.6115244236
 C         -3.5987984467        3.8637928855       -0.7496821505
 C         -4.2631138194        3.9750360942        0.6232254562
 H         -4.0057627778        4.9572224122        1.0245785848
 H         -5.3467042921        3.9446179817        0.5051298073
 C         -3.8225271363        2.9019869612        1.6289421415
 H         -2.8943423155        2.4378234656        1.2853109154
 H         -3.6033893342        3.3721161314        2.5904296973
 C         -4.8597738071        1.8084613862        1.8856927347
 H         -5.7413691216        2.2448734373        2.3603369525
 H         -4.4265937214        1.0836429158        2.5797223399
 C         -5.3061562257        1.0524176521        0.6276382584
 H         -5.8648418490        0.1669609771        0.9403556131
 H         -5.9569486956        1.6819736060        0.0213467000
 H         -2.5154675964        3.7910459303       -0.6249154315
 H         -3.8083414616        4.7803040148       -1.3061265441
 H         -3.6897920096        2.8231948166       -2.6242894346
 H         -5.1644043335        2.6797702886       -1.6509125448
 O         -2.4798283570        0.9510258407       -1.8365929857
 C         -1.8404468327       -0.2508127302       -1.5659114128
 O         -0.8364187733       -0.4453160673       -2.2808776282
 H          0.7063756237       -1.4761146717       -0.9676294007
 C          0.6569848244       -1.6652109958        0.0942346340
 C         -0.5195463302       -2.1540736705        0.6440611690
 C         -0.5778158431       -2.3483434316        2.0196866960
 C          0.5146800355       -2.0619635375        2.8194037590
 C          1.6854514129       -1.5728055499        2.2673363026
 C          1.7480179812       -1.3633120196        0.8960398589
 N          2.9328009884       -0.8505944867        0.3137606341
 S          3.3639319600        0.7112486676        0.7998201538
 O          3.6371797880        0.6915895131        2.2142564777
 O          2.3721875384        1.6709548536        0.3594630666
 C          4.8821969036        0.9266589403       -0.1069056377
 C          4.8593512763        1.5777977576       -1.3250175154
 C          6.0420890000        1.7114801363       -2.0355696629
 C          7.2192915821        1.1904164403       -1.5202471204
 C          7.2255204435        0.5376839323       -0.2964284637
 C          6.0468805284        0.4017632217        0.4193223350
 H          6.0042181712       -0.0898620980        1.3768964762
 H          8.1431955625        0.1350589761        0.1009224504
 H          8.1376889793        1.2960916413       -2.0758406613
 H          6.0395901957        2.2197742335       -2.9864733581
 H          3.9222499979        1.9734452600       -1.6842370586
 H          2.8461667646       -0.8373820715       -0.6958706089
 H          2.5347769311       -1.3255285861        2.8822993926
 H          0.4538645491       -2.2181182021        3.8859930302
 H         -1.4967083252       -2.7073448662        2.4609547583
 C         -1.7324568242       -2.4085753367       -0.2187904662
 H         -2.4780725159       -2.9281620408        0.3978465009
 C         -1.4164744450       -3.2742094026       -1.4213062984
 C         -1.1786468175       -4.7393753501       -1.2161228149
 C         -2.4311763284       -4.2707353736       -1.8921412862
 H         -2.5380415097       -4.4323528657       -2.9542756169
 H         -3.3609112868       -4.3336790421       -1.3458136510
 H         -0.4229961003       -5.2268276253       -1.8125699211
 H         -1.2587738044       -5.1204816167       -0.2093661756
 H         -0.8336726931       -2.7691800977       -2.1802591942
 O         -4.0475880419       -1.4349264190        1.0470033486
