  62
        -98.94427589
 C         -1.9738951294       -1.1880327795       -0.1473484804
 C         -2.3725075690       -0.0134607289       -0.8301376696
 C         -3.8144804289        0.2673828315       -0.8209754894
 C         -4.6605884692       -0.5821526386       -0.2111597200
 C         -6.1573411392       -0.4440951582       -0.1414868199
 C         -6.6487197989        0.4694241411        0.9898234607
 C         -6.4050397984        1.9634701012        0.7728403618
 H         -6.7927365384        2.2559218820       -0.2034674180
 H         -6.9876389883        2.4959378308        1.5272287422
 C         -4.9350941483        2.3896094607        0.8936757821
 H         -4.3685513986        1.6072925501        1.4040252016
 H         -4.8653556181        3.2883461702        1.5105363128
 C         -4.2537931282        2.7017795014       -0.4388556177
 H         -3.2075431982        2.9490741810       -0.2401025875
 H         -4.7251571380        3.5744523319       -0.8965994770
 C         -4.2820612186        1.5460569521       -1.4474883185
 H         -5.2849321686        1.4273657627       -1.8573016186
 H         -3.5955777785        1.7864333125       -2.2632443883
 H         -6.1754086490        0.1551737503        1.9228156705
 H         -7.7245551089        0.3100359913        1.0925037606
 H         -6.5542129995       -1.4471163782        0.0292163994
 H         -6.5358848890       -0.0786823874       -1.0964865296
 O         -4.2374045095       -1.7114070192        0.4170459392
 C         -2.8905757396       -2.0281502697        0.4856471890
 O         -2.6397544199       -3.0690935902        1.1263124982
 O         -1.5759264588        0.7609515113       -1.4211491690
 C         -0.5043989595       -1.5692352400       -0.0711956807
 C          0.2509675508       -0.4643354307        0.6256440501
 C         -0.0694582991       -0.1860776915        1.9530794803
 C          0.5554599112        0.8419428078        2.6302609910
 C          1.5195676614        1.6101607580        2.0001230916
 C          1.8468360214        1.3421662188        0.6766656014
 C          1.2185179611        0.3036783095       -0.0004994593
 H          1.4734743110        0.1357415801       -1.0325293195
 N          2.7984657016        2.1300671990        0.0123544720
 S          3.9499900014        1.4662738394       -0.9969561485
 O          4.8931838117        2.5403693292       -1.2167759677
 O          3.3357767313        0.9043070504       -2.1717348989
 C          4.7172422010        0.1847621284       -0.0223774594
 C          4.2462958306       -1.1100063014       -0.1021023603
 C          4.8195856804       -2.0804577221        0.7047674190
 C          5.8463478904       -1.7420519730        1.5723981992
 C          6.3097520308       -0.4366130032        1.6390321002
 C          5.7386077611        0.5385925875        0.8381247608
 H          6.0763359514        1.5622205074        0.8495291316
 H          7.1115081509       -0.1772629339        2.3115135703
 H          6.2895069102       -2.5013159936        2.1973161187
 H          4.4614384700       -3.0962447120        0.6514021383
 H          3.4501905406       -1.3387041706       -0.7907848705
 H          3.1964987118        2.8684357785        0.5735455025
 H          2.0031203717        2.4208516774        2.5237564122
 H          0.2928011313        1.0485551271        3.6568461912
 H         -0.8281022793       -0.7844472717        2.4398129399
 H         -0.4591821498       -2.4671040004        0.5614510187
 C          0.0248810604       -1.9178546891       -1.4455266109
 C          1.1882536801       -2.8516655894       -1.5833223616
 C         -0.1872011800       -3.3053088587       -1.9692435019
 H         -0.4162184100       -3.4313576979       -3.0168089820
 H         -0.6959587402       -4.0066280090       -1.3236364824
 H          1.9057382702       -2.6679626690       -2.3696430115
 H          1.6126795400       -3.2554027202       -0.6762932519
 H         -0.0625740693       -1.1030017386       -2.1548806803
