  62
        -98.94455637
 C         -2.6199901899       -1.2309268389        0.1348208955
 C         -2.6352779870       -0.2835134829       -0.9173545430
 C         -3.4459540334        0.9220350600       -0.6864804157
 C         -4.1205762514        1.0608321902        0.4684284902
 C         -4.9306496997        2.2634029702        0.8543274579
 C         -4.0790965020        3.2830293814        1.6235780989
 C         -2.7468616471        3.6134264258        0.9496909054
 H         -2.1067009390        2.7273726125        0.9592798612
 H         -2.2500884720        4.3685170397        1.5630183240
 C         -2.8733549962        4.1297504253       -0.4903842962
 H         -2.2108892999        4.9893655355       -0.6121642309
 H         -3.8917348001        4.4752496844       -0.6726326072
 C         -2.4827930073        3.1139196437       -1.5656942647
 H         -1.4985798092        2.6965570276       -1.3327414884
 H         -2.3932300232        3.6447085557       -2.5176173565
 C         -3.4669077190        1.9559627531       -1.7770212768
 H         -3.1738334093        1.4342722986       -2.6927684291
 H         -4.4750129726        2.3517370005       -1.9148390779
 H         -3.8674673337        2.8794602549        2.6163394218
 H         -4.6621508572        4.1976729644        1.7450395931
 H         -5.7511485605        1.9337527273        1.4937750057
 H         -5.3425167775        2.7213466061       -0.0427262821
 O         -4.1001839674        0.1228608235        1.4481684392
 C         -3.3422573848       -1.0262898679        1.3157351621
 O         -3.3987486945       -1.7892197052        2.3004190339
 O         -2.0152736768       -0.4130915736       -2.0079156067
 C         -1.7969007565       -2.5116973025        0.0903116112
 C         -0.3525813106       -2.1783119707        0.3788767433
 C          0.2115043251       -2.4786832993        1.6136643540
 C          1.5149607354       -2.1132749190        1.9008198441
 C          2.2785576992       -1.4340610199        0.9680082030
 C          1.7196414613       -1.1200272301       -0.2634694421
 C          0.4205932413       -1.5056797417       -0.5567863945
 H         -0.0134214531       -1.2364640990       -1.5080464247
 N          2.4791098482       -0.3995028533       -1.2083426233
 S          3.0320712705        1.1068522617       -0.7007624212
 O          2.1737094659        1.6706163395        0.3167439834
 O          3.1984129422        1.8860639366       -1.9084363348
 C          4.6382387045        0.7508308471       -0.0188895554
 C          5.5648075719        0.1271024310       -0.8316053150
 C          6.8208359387       -0.1558122014       -0.3194130460
 C          7.1284600974        0.1906961577        0.9880368670
 C          6.1884478856        0.8197640668        1.7898481721
 C          4.9293648009        1.1042996479        1.2839323480
 H          4.1637264448        1.5856672096        1.8714042091
 H          6.4292073930        1.0886366566        2.8058627340
 H          8.1066349885       -0.0307867582        1.3847426724
 H          7.5545513330       -0.6449199180       -0.9396432690
 H          5.2856579595       -0.1210804716       -1.8419097008
 H          2.0017186259       -0.3022513560       -2.0944277647
 H          3.2906288909       -1.1361688261        1.1892918448
 H          1.9390159837       -2.3541690410        2.8637467337
 H         -0.3899749564       -2.9822492577        2.3568923629
 H         -2.1698185747       -3.1308365384        0.9167090576
 C         -1.9642809535       -3.2864604561       -1.2012434883
 C         -1.5880875995       -4.7363284258       -1.2286582008
 C         -3.0305119741       -4.3346447964       -1.2905560249
 H         -3.5610827128       -4.4501512386       -2.2237486960
 H         -3.6447224475       -4.4985483060       -0.4169403085
 H         -1.1256651247       -5.1313569751       -2.1200578759
 H         -1.2238526874       -5.1746462595       -0.3118463546
 H         -1.7756679422       -2.6987581758       -2.0894840003
