  62
        -98.93831061
 C          1.8739302796        0.7730496393       -0.2433132188
 C          2.4781293616        0.1669903349        0.8819660414
 C          3.5416873366       -0.8130537935        0.6066813256
 C          3.8549222030       -1.1036403111       -0.6678201843
 C          4.8672258041       -2.0973122225       -1.1808715694
 C          6.2294493955       -2.1507495785       -0.4754695935
 C          6.7292471179       -0.8069749476        0.0748420475
 H          7.7495499470       -0.6384049078       -0.2744681844
 H          6.1142586526        0.0076614507       -0.3113500506
 C          6.7425136381       -0.7560916856        1.6045495022
 H          7.1374274322       -1.7015255402        1.9828603329
 H          7.4260279864        0.0343420725        1.9237043024
 C          5.3917854472       -0.4789818534        2.2631942984
 H          5.5163398017       -0.5853097594        3.3435113873
 H          5.0941335857        0.5561502983        2.0752933491
 C          4.2355402130       -1.3851067886        1.8095306414
 H          3.4893548121       -1.4025172722        2.6087836868
 H          4.5771350257       -2.4021575787        1.6328289997
 H          6.1911646074       -2.8748193829        0.3372755571
 H          6.9456730366       -2.5352620160       -1.2035620930
 H          5.0095220210       -1.8384194785       -2.2328396448
 H          4.4112949151       -3.0915444056       -1.1544444449
 O          3.2229039204       -0.5184045188       -1.7245282824
 C          2.2271225340        0.4301356060       -1.5475475010
 O          1.7483961104        0.8763880535       -2.6064740443
 O          2.1326193692        0.4205597471        2.0679089820
 C          0.7810619227        1.8036401942       -0.0271298095
 C         -0.5130858029        1.3250045773       -0.6380625873
 C         -1.3245136250        2.1196209532       -1.4364102041
 C         -2.4970756891        1.6116691723       -1.9702313449
 C         -2.8906248531        0.3119735039       -1.7134907960
 C         -2.0968867691       -0.4849375902       -0.8970915327
 C         -0.9256905151        0.0267835437       -0.3611341002
 H         -0.3075067541       -0.5975526470        0.2722561060
 N         -2.4947227043       -1.8018977561       -0.6139944329
 S         -4.1013933980       -2.0791184488       -0.2394542847
 O         -4.0961093917       -3.2599200787        0.5955145573
 O         -4.8745985149       -2.1721027170       -1.4527773788
 C         -4.6202390048       -0.6518944726        0.6974932567
 C         -5.6517546775        0.1391118826        0.2345812707
 C         -6.0190052325        1.2574913150        0.9657838125
 C         -5.3485183889        1.5660135725        2.1388890156
 C         -4.3159554587        0.7594144266        2.5927629831
 C         -3.9465038205       -0.3613156824        1.8673241331
 H         -3.1506334687       -1.0102199465        2.1968992476
 H         -3.7946807651        1.0001523050        3.5054282519
 H         -5.6311798845        2.4394744967        2.7048925143
 H         -6.8228324392        1.8851494471        0.6165612391
 H         -6.1435417452       -0.1358376182       -0.6842045194
 H         -1.8768826959       -2.2946023315        0.0132418985
 H         -3.7889556992       -0.1037964787       -2.1399723071
 H         -3.1107800826        2.2365351383       -2.6007163962
 H         -1.0343252425        3.1344516658       -1.6518990181
 H          0.6430011375        1.8561341760        1.0633213904
 C          1.2259623534        3.1617657134       -0.5269527924
 C          0.6920344694        4.4118282589        0.1043388239
 C          2.1113789497        3.9976160454        0.3465239635
 H          2.9040837902        4.5662626722       -0.1161558249
 H          2.3709706850        3.5981691168        1.3162237198
 H          0.5112813026        5.2704184127       -0.5245051140
 H         -0.0122471617        4.3009916287        0.9146355554
 H          1.4259835742        3.1675970635       -1.5925623737
