  62
        -98.94474672
 C         -2.4813003113       -0.9892910213       -0.0155206021
 C         -2.9574540304       -0.1085611448        0.9924842594
 C         -3.3403464936        1.2368827813        0.5574327500
 C         -3.2523656128        1.5636977461       -0.7440711654
 C         -3.5926855496        2.8983001809       -1.3484662691
 C         -2.4497855833        3.9192850878       -1.2582555896
 C         -2.2013666843        4.4952538049        0.1365898664
 H         -1.5399910204        5.3550325449        0.0125805951
 H         -3.1413853397        4.8625525034        0.5499546774
 C         -1.5507586513        3.5140697709        1.1221248187
 H         -1.0945037629        2.6881116450        0.5691546703
 H         -0.7415757703        4.0195311504        1.6545416861
 C         -2.5023242297        2.9500338749        2.1782303520
 H         -2.8433480658        3.7574251258        2.8301609824
 H         -1.9471398663        2.2331300951        2.7882980446
 C         -3.7320146774        2.2321575116        1.6072473990
 H         -4.2174005764        1.6856865420        2.4194578156
 H         -4.4369784045        2.9565105381        1.2004177622
 H         -1.5325327446        3.4509007529       -1.6253935895
 H         -2.6946103742        4.7443485265       -1.9315088824
 H         -3.8116000902        2.7175407181       -2.4030737344
 H         -4.4851643214        3.3037821412       -0.8711343693
 O         -2.8402123595        0.6793565263       -1.6880038856
 C         -2.4009583454       -0.5926505263       -1.3501086478
 O         -1.9909521587       -1.2454284905       -2.3336239125
 O         -3.0555353528       -0.4378780999        2.2041588226
 C         -1.9736005678       -2.3418728861        0.4622633128
 C         -0.4828223984       -2.2292608629        0.6755971835
 C          0.0743174656       -2.2991785300        1.9469564512
 C          1.4299646576       -2.0920198841        2.1363185048
 C          2.2527957038       -1.7894078226        1.0654218557
 C          1.7028151702       -1.7174547434       -0.2070665969
 C          0.3533639913       -1.9589654446       -0.3988943327
 H         -0.0639383288       -1.8812980043       -1.3923733492
 N          2.5242368230       -1.3241846985       -1.2969827651
 S          2.7252056984        0.3532725941       -1.3336705665
 O          1.5416504745        1.0404589091       -0.8637364960
 O          3.1600851598        0.6696567694       -2.6772347229
 C          4.0715657999        0.6096406376       -0.1990237456
 C          3.8476191799        1.2590408522        0.9985660384
 C          4.9079298171        1.4292327484        1.8754385379
 C          6.1646784898        0.9485368121        1.5405656655
 C          6.3728400145        0.2990413055        0.3325319293
 C          5.3175283343        0.1257544738       -0.5484604974
 H          5.4319203905       -0.3684120163       -1.4987781045
 H          7.3516802911       -0.0728556950        0.0760587691
 H          6.9870587848        1.0814693055        2.2256258039
 H          4.7476665450        1.9334839979        2.8148111615
 H          2.8516602368        1.6104169889        1.2168153314
 H          2.1288714787       -1.6042557757       -2.1857356678
 H          3.3055330654       -1.6049380112        1.2054932524
 H          1.8471583568       -2.1497177855        3.1298713334
 H         -0.5699367434       -2.4902553150        2.7926759903
 H         -2.4437305735       -2.4987542732        1.4423159731
 C         -2.3348281167       -3.5053170120       -0.4364834418
 C         -2.3104874849       -4.8916676032        0.1322243475
 C         -3.6185226777       -4.2408778737       -0.2008330619
 H         -4.1714501613       -4.5951515069       -1.0576938662
 H         -4.2440465808       -3.9054039305        0.6134274156
 H         -1.9626638026       -5.6980606035       -0.4947788489
 H         -2.0498101127       -4.9993609210        1.1740910085
 H         -2.0212109810       -3.3750770562       -1.4637726436
