  62
        -98.93582571
 C          2.3766308930        0.4766364281        0.9094079218
 C          3.4277503073        1.0807592387        0.1745173445
 C          4.7323609068        0.3998934009        0.2469267645
 C          4.8621577414       -0.7168440760        0.9838153458
 C          6.1137268930       -1.5383196264        1.0893316401
 C          6.1458211875       -2.6406539689        0.0213288676
 C          5.8360294198       -2.1421482375       -1.3902344818
 H          4.7984997455       -1.8019157290       -1.4277411343
 H          5.9170032759       -2.9990759506       -2.0625023706
 C          6.7571044332       -1.0169432866       -1.8822836896
 H          7.0633948738       -1.2381646245       -2.9068680599
 H          7.6614154537       -0.9858687940       -1.2735344937
 C          6.1110270203        0.3695661309       -1.9000282503
 H          5.1568202058        0.3221793470       -2.4306299911
 H          6.7646413151        1.0421537658       -2.4617972256
 C          5.8673014111        1.0096947591       -0.5275337889
 H          5.5885345100        2.0544036634       -0.6935164874
 H          6.7884741373        0.9879895723        0.0580179011
 H          5.4062419675       -3.3999576567        0.2859696679
 H          7.1325399963       -3.1071300076        0.0365237247
 H          6.9793573820       -0.8876564070        0.9815377001
 H          6.1384287670       -2.0008325351        2.0774448084
 O          3.8351503536       -1.2587658684        1.6884382103
 C          2.5766827848       -0.6847216598        1.6607129151
 O          1.7266979887       -1.2890611564        2.3471998370
 H         -1.5325735166        0.0086207245        1.0594773515
 C         -1.1505982838        0.0369518859        0.0493243086
 C          0.1296766704        0.5094269124       -0.1965806185
 C          0.6041572597        0.5072841702       -1.5046827420
 C         -0.1933201219        0.0496417323       -2.5376562179
 C         -1.4813570742       -0.3926148326       -2.2922788182
 C         -1.9622553886       -0.4003032470       -0.9883410420
 N         -3.2585655682       -0.8528049923       -0.6983274922
 S         -4.1076446546       -0.0540077707        0.5255880949
 O         -3.8718179486        1.3689059464        0.4367109195
 O         -3.7956371095       -0.6747940601        1.7885000076
 C         -5.7872711272       -0.4350266608        0.0649833916
 C         -6.5090712009        0.4809478464       -0.6769612048
 C         -7.8042473307        0.1644363496       -1.0558020298
 C         -8.3510608233       -1.0568563129       -0.6915004400
 C         -7.6143094752       -1.9656299872        0.0538568308
 C         -6.3192160675       -1.6552975758        0.4372276183
 H         -5.7122965032       -2.3247725010        1.0244390711
 H         -8.0439322117       -2.9126908366        0.3379446681
 H         -9.3591690520       -1.3007648169       -0.9873031170
 H         -8.3807369624        0.8701780590       -1.6318417253
 H         -6.0457963253        1.4212739614       -0.9292691991
 H         -3.8235214321       -0.9933382347       -1.5247077454
 H         -2.1071288737       -0.7354421385       -3.1022168387
 H          0.1868923099        0.0526800890       -3.5482100495
 H          1.5968226624        0.8813696540       -1.7034458095
 C          0.9624410786        1.0307573073        0.9462242706
 H          0.5208546772        0.6345789753        1.8756748834
 C          0.9148542688        2.5503860662        1.0455426868
 C          0.4902345906        3.4436506247       -0.0766837262
 C         -0.4071180299        3.2581505138        1.1077219330
 H         -0.5208555213        4.0745282604        1.8053601865
 H         -1.3037252794        2.6684192206        0.9752720321
 H          0.2018400108        2.9874719791       -1.0103406415
 H          1.0139010040        4.3799303875       -0.1942088135
 H          1.6986128495        2.9334596592        1.6919265613
 O          3.3075397804        2.1261014824       -0.5128031949
