  62
        -98.94670205
 C         -1.9901812499       -1.4553662100       -0.0618633012
 C         -1.7129760800       -0.2291818197       -0.7104357007
 C         -2.8631599101        0.6632050102       -0.9119950704
 C         -4.0847040700        0.2641269999       -0.5131107906
 C         -5.3320184901        1.0925888898       -0.6141125203
 C         -5.5565713203        1.9189471893        0.6601839300
 C         -4.3216652604        2.6932137393        1.1212726604
 H         -4.6080613004        3.2612856889        2.0089896506
 H         -3.5505862803        1.9832419193        1.4291289601
 C         -3.7394745404        3.6477650398        0.0694508207
 H         -4.4829351904        3.8456080700       -0.7035013092
 H         -3.5109027306        4.6009423196        0.5507182111
 C         -2.4463977404        3.1566248201       -0.5842491094
 H         -1.7367473204        2.8598540199        0.1926078605
 H         -2.0067340804        3.9923149104       -1.1355403991
 C         -2.5997913302        1.9894823205       -1.5678908899
 H         -3.3784794702        2.2218992207       -2.2971364698
 H         -1.6522998402        1.8747759608       -2.1031250599
 H         -5.8555115002        1.2415648090        1.4635281698
 H         -6.3783576203        2.6142785293        0.4796044103
 H         -6.1804734801        0.4208630798       -0.7549480705
 H         -5.2555454302        1.7503428202       -1.4777655200
 O         -4.3163577399       -0.9360421003        0.0784967590
 C         -3.2778170998       -1.8165251403        0.3344283187
 O         -3.6219304797       -2.8675842205        0.9116040983
 O         -0.5648471800        0.1077951206       -1.0995424405
 C         -0.8607337498       -2.4321256500        0.2145118285
 C          0.2122447501       -1.7483910402        1.0264251388
 C         -0.1476744600       -1.1446506807        2.2297564890
 C          0.7924871300       -0.4989228809        3.0080992193
 C          2.1131741300       -0.4325508206        2.5977501293
 C          2.4840906601       -1.0351702001        1.4029511091
 C          1.5391159401       -1.6991616799        0.6305586688
 H          1.8589983902       -2.1500036095       -0.2933546813
 N          3.8228840801       -1.0023376197        0.9662114592
 S          4.1817388400       -0.3145550891       -0.5197619306
 O          3.5076353801       -1.0324356788       -1.5688592709
 O          5.6279878200       -0.3070522290       -0.5775099205
 C          3.5876650598        1.3629358407       -0.3919769100
 C          4.4925115097        2.3529103707       -0.0577382296
 C          4.0389032696        3.6506579306        0.1103403709
 C          2.6906773495        3.9344080305       -0.0494347690
 C          1.7970112897        2.9284281205       -0.3810059794
 C          2.2424498698        1.6263848607       -0.5539711299
 H          1.5557949499        0.8354128907       -0.8115708102
 H          0.7467527396        3.1387018405       -0.5075623394
 H          2.3338748194        4.9436228804        0.0841602014
 H          4.7342101395        4.4339139406        0.3664477512
 H          5.5315414597        2.0863627208        0.0512603704
 H          4.4626511100       -0.6356998599        1.6577415293
 H          2.8501247899        0.0781543593        3.1991574995
 H          0.4959563999       -0.0370250612        3.9377007594
 H         -1.1821164600       -1.1901859509        2.5438911690
 H         -1.2949872497       -3.2357336903        0.8271464982
 C         -0.3552870997       -3.0304562994       -1.0812893517
 C          0.2799812205       -4.3872432394       -1.0838353222
 C         -1.0836752295       -4.1965039293       -1.6755063522
 H         -1.1931118595       -4.2439804189       -2.7486480122
 H         -1.9366135095       -4.5770049496       -1.1321005223
 H          1.1107234305       -4.5641591290       -1.7505318723
 H          0.3545614105       -4.9061296797       -0.1399919324
 H          0.0354652903       -2.2861599491       -1.7663955114
