  62
        -98.94047530
 C          0.9899462580        1.9132517892        0.1586259516
 C         -0.0092271239        2.2696317000       -0.7771209169
 C         -1.4100079832        2.1672984765       -0.3271234003
 C         -1.6575239107        1.8150254802        0.9467215730
 C         -2.9896160154        1.5707408170        1.6044305209
 C         -3.9022138490        0.5940728473        0.8432603478
 C         -5.1535800156        1.2649456485        0.2775667262
 H         -5.9177408268        0.5016506608        0.1152292586
 H         -5.5416241060        1.9655259930        1.0198479139
 C         -4.9419375793        1.9940836309       -1.0476758334
 H         -4.7757657511        1.2578424701       -1.8378040435
 H         -5.8681988537        2.5230644450       -1.2849956264
 C         -3.7853020443        2.9974842526       -1.0790214547
 H         -3.7238409074        3.5490452763       -0.1424090485
 H         -4.0061619577        3.7257075132       -1.8628143927
 C         -2.4254687322        2.3732797571       -1.4176409993
 H         -2.5668634104        1.4054606688       -1.9142887615
 H         -1.9119556393        3.0031755749       -2.1521981792
 H         -3.3392582704        0.1114132906        0.0421245425
 H         -4.2143591452       -0.1911966526        1.5336705495
 H         -2.7585139431        1.1724756635        2.5941813576
 H         -3.5021824083        2.5220978378        1.7548983700
 O         -0.6572022384        1.6058705931        1.8497938286
 C          0.6765052708        1.5669794563        1.4711197321
 O          1.4536554925        1.2235272975        2.3808530059
 O          0.2585012652        2.6339291861       -1.9549613333
 C          2.4212344191        1.7649753628       -0.3286718300
 C          2.7367500158        0.2869888436       -0.3579092442
 C          3.8150920464       -0.2905231192        0.2981212044
 C          4.0022180307       -1.6622436262        0.2595390778
 C          3.1175199556       -2.4820108701       -0.4163578700
 C          2.0389532821       -1.9131290922       -1.0860727211
 C          1.8692423601       -0.5387890130       -1.0656142863
 H          1.0330875189       -0.1065785966       -1.5965774839
 N          1.1217579950       -2.7140551562       -1.7936153039
 S         -0.5192745093       -2.5579306830       -1.5058410036
 O         -1.1130595042       -3.6870702336       -2.1881235003
 O         -0.9819946924       -1.2546951256       -1.9068625599
 C         -0.6904052067       -2.7599400090        0.2551168202
 C         -0.9414931733       -4.0121539944        0.7809003711
 C         -1.0049244622       -4.1568282179        2.1575075508
 C         -0.8034500893       -3.0576820357        2.9797077398
 C         -0.5487192521       -1.8079977527        2.4358962549
 C         -0.4945166292       -1.6574300264        1.0601539483
 H         -0.3020244154       -0.7007403123        0.6014924590
 H         -0.3778174180       -0.9463698485        3.0627157244
 H         -0.8448563138       -3.1725699491        4.0513779287
 H         -1.2062443147       -5.1253709942        2.5861664973
 H         -1.0940922279       -4.8378145944        0.1047766129
 H          1.3676328692       -3.6939847305       -1.8144012386
 H          3.2585491184       -3.5520578042       -0.4318068073
 H          4.8431147665       -2.0997499476        0.7755754758
 H          4.5041127927        0.3311603716        0.8452836233
 H          2.4144261331        2.1304415364       -1.3662143118
 C          3.3949851538        2.5948386824        0.4764351345
 C          4.7004272916        3.0092288252       -0.1323131388
 C          3.6210236340        4.0244914412        0.0888881240
 H          3.7507162398        4.7557574132        0.8724260547
 H          3.0839527645        4.3979278958       -0.7710343300
 H          5.5753370516        3.0473674062        0.4986628428
 H          4.9002781793        2.6958902664       -1.1459474544
 H          3.3714616290        2.3637796541        1.5345851996
