  62
        -98.93913594
 C         -2.6760349338       -1.2224347527       -0.3697154178
 C         -2.5101505705        0.0145137787       -1.0388327145
 C         -3.6722739504        0.9155884183       -1.0146484418
 C         -4.7989437750        0.5275065960       -0.3908444181
 C         -6.0299405614        1.3719274025       -0.2374176469
 C         -5.9853083334        2.1837132749        1.0649204103
 C         -4.6714967605        2.9352147532        1.2809143005
 H         -4.7667255337        3.4940093417        2.2145281698
 H         -3.8645747793        2.2119799899        1.4221913475
 C         -4.2959793672        3.8975848901        0.1453754383
 H         -3.9615130253        4.8405938607        0.5828484101
 H         -5.1757658305        4.1157386184       -0.4611602744
 C         -3.1668525083        3.4014176172       -0.7597405599
 H         -2.3147496775        3.0933078382       -0.1480604459
 H         -2.8378644794        4.2380736553       -1.3818186002
 C         -3.5271450545        2.2448019697       -1.7005364197
 H         -4.4318888682        2.4920396422       -2.2592827373
 H         -2.7040773288        2.1265601954       -2.4111833236
 H         -6.8151339103        2.8927675269        1.0584864396
 H         -6.1293094233        1.4995167633        1.9043664675
 H         -6.1152207868        2.0403083275       -1.0918926594
 H         -6.8992223542        0.7126461729       -0.2144393458
 O         -4.9267265038       -0.6762100956        0.2241516697
 C         -3.8691164806       -1.5675642831        0.2687527844
 O         -4.1120469298       -2.6211250196        0.8914707227
 O         -1.4549579359        0.3578015090       -1.6327312882
 C         -1.5330163015       -2.2212123762       -0.2758232919
 C         -0.4618397869       -1.6210725976        0.6029272152
 C         -0.6467733274       -1.6285639909        1.9830103200
 C          0.2851082243       -1.0490010155        2.8227779251
 C          1.4142988344       -0.4376139157        2.3055442323
 C          1.6052141197       -0.4194713498        0.9307392069
 C          0.6773193794       -1.0228619493        0.0892151471
 H          0.8313679646       -0.9939417656       -0.9778125893
 N          2.7271430979        0.2346950869        0.3865880694
 S          4.2391229631       -0.0801337842        1.0659570425
 O          4.4807849929       -1.5060776633        1.1133394745
 O          4.3319870129        0.6131174115        2.3262190415
 C          5.3065212984        0.6954942282       -0.1307166343
 C          5.9393811889       -0.0781350051       -1.0846259513
 C          6.7473768816        0.5441797549       -2.0234028476
 C          6.9043506432        1.9216289970       -1.9943358839
 C          6.2614623206        2.6847843470       -1.0307900063
 C          5.4533309388        2.0689484940       -0.0886909294
 H          4.9403379337        2.6197861430        0.6821992064
 H          6.3874526550        3.7552797905       -1.0108224614
 H          7.5336697801        2.4033440171       -2.7259628445
 H          7.2503533089       -0.0462103630       -2.7722915782
 H          5.7947844837       -1.1464817899       -1.0647911540
 H          2.7639090193        0.1335911930       -0.6189760033
 H          2.1480107769        0.0192494962        2.9495219472
 H          0.1312374124       -1.0675778202        3.8915713748
 H         -1.5375408089       -2.0910649143        2.3865838797
 H         -1.9420597260       -3.0986344921        0.2429876723
 C         -1.0444044387       -2.6497916826       -1.6431560018
 C         -0.1824583379       -3.8694018823       -1.7643391010
 C         -1.5974574647       -3.8990669569       -2.2570079770
 H         -1.7728616790       -3.9148946592       -3.3222387387
 H         -2.3270519269       -4.4554896675       -1.6867903222
 H          0.6150858633       -3.8695603950       -2.4916197264
 H          0.0511152523       -4.4057369510       -0.8567683571
 H         -0.8478508251       -1.8187629366       -2.3087301091
