  62
        -98.94333920
 C          1.3804751475        0.9592793636        0.0084781549
 C          1.8424206039       -0.1750053172        0.7185052219
 C          2.8306640708       -1.0099229319        0.0221996919
 C          3.2057029688       -0.6804215233       -1.2274738406
 C          4.2373745702       -1.4149351473       -2.0328753248
 C          5.6374854242       -0.8245615986       -1.8146152286
 C          6.0065262907       -0.6370679441       -0.3430216137
 H          7.0248260436       -0.2436025098       -0.3113125069
 H          5.3547840092        0.1232024347        0.0934379200
 C          5.9266070331       -1.9176172623        0.4998702910
 H          6.8181055251       -1.9794806584        1.1275744303
 H          5.9297146730       -2.7915318721       -0.1527076461
 C          4.7177494907       -1.9868079109        1.4346917715
 H          4.8739545774       -2.8150932337        2.1308703124
 H          4.6598154349       -1.0691931406        2.0253502137
 C          3.3607259724       -2.2099579650        0.7554201860
 H          3.4200212643       -3.0743040509        0.0906339768
 H          2.6294647694       -2.4274759922        1.5393577957
 H          5.6825183472        0.1501094389       -2.3061168414
 H          6.3666078477       -1.4802213527       -2.2942562458
 H          4.2283496729       -2.4669519099       -1.7537341348
 H          3.9761877009       -1.3267498812       -3.0889666057
 O          2.7111477894        0.3956496238       -1.8918689866
 C          1.7892821151        1.2451446368       -1.2938986664
 O          1.4162457361        2.1886481282       -2.0158473840
 H         -0.7536999097       -0.1978724231       -0.6136023416
 C         -1.3805182247        0.6841619325       -0.6694846101
 C         -0.9445387965        1.8641532251       -0.0810781589
 C         -1.7726585552        2.9777782320       -0.1555035250
 C         -2.9946976281        2.9085080946       -0.8030728288
 C         -3.4227258713        1.7297551096       -1.3871353118
 C         -2.6010397828        0.6141754135       -1.3219936274
 N         -3.0544547000       -0.6116390132       -1.8745859270
 S         -4.1366841102       -1.4091723356       -0.8677044283
 O         -4.2950871660       -2.7358088663       -1.4188763788
 O         -5.3304093225       -0.6112230642       -0.7604239657
 C         -3.2928375300       -1.4788749997        0.7013392032
 C         -2.4434089141       -2.5379309479        0.9526225864
 C         -1.6881523414       -2.5308096426        2.1138533682
 C         -1.7817578831       -1.4616024237        2.9909791358
 C         -2.6392515678       -0.4058641319        2.7238016061
 C         -3.4022807498       -0.4093939694        1.5672764962
 H         -4.0763982544        0.3951740624        1.3217416263
 H         -2.7073276318        0.4257091027        3.4066529146
 H         -1.1731149279       -1.4482415563        3.8809756881
 H         -1.0171550431       -3.3478907345        2.3251493980
 H         -2.3943524830       -3.3471381672        0.2408038855
 H         -2.2954454970       -1.2449055619       -2.0871416151
 H         -4.3793958376        1.6500893904       -1.8766904626
 H         -3.6237013223        3.7842236650       -0.8510716629
 H         -1.4607102903        3.9042769794        0.2982231159
 C          0.3634450436        1.8663003238        0.6717249411
 H          0.1753802713        1.4148014660        1.6585268715
 C          0.9358703734        3.2548143473        0.8725853669
 C          0.5536147605        4.0708090406        2.0703881236
 C          1.9244870721        3.4738560087        1.9775048167
 H          2.7646962679        4.1273773913        1.7966774025
 H          2.1579155988        2.6277627103        2.6073988974
 H          0.4538180777        5.1396467593        1.9549671117
 H         -0.1387384587        3.6349004225        2.7744206467
 H          1.1118936787        3.7701053783       -0.0649652272
 O          1.4410642307       -0.4771694292        1.8732373688
