  62
        -98.93926322
 C          2.5438457497        0.1908278043        0.0367436679
 C          2.2442741759        1.1918228282       -0.9131031810
 C          1.6119521134        2.4227615833       -0.4079002772
 C          1.3605524775        2.5381510723        0.9097354950
 C          0.7460332729        3.6608251777        1.7206296871
 C          0.1386696112        4.8767943965        1.0283691091
 C         -1.1838575139        4.6010724796        0.3095293935
 H         -1.9648389949        4.4820600806        1.0645482540
 H         -1.4365150149        5.4723048040       -0.2986417233
 C         -1.2166958813        3.3536512051       -0.5706379272
 H         -2.2367582669        3.2320884040       -0.9480033567
 H         -1.0010909918        2.4651796853        0.0270683138
 C         -0.2849673854        3.3751526086       -1.7798471457
 H         -0.4738240896        2.4589745288       -2.3485729315
 H         -0.5287519970        4.2265399254       -2.4199486554
 C          1.2150296098        3.4245396133       -1.4546611147
 H          1.7647594869        3.1515268263       -2.3609230186
 H          1.5220229484        4.4292336091       -1.1750514107
 H          0.8645682567        5.3210743783        0.3534554574
 H         -0.0602883882        5.6157751479        1.8092034022
 H         -0.0138518224        3.1884751573        2.3517204426
 H          1.5393233762        4.0020246689        2.3948968675
 O          1.7068352353        1.5588873461        1.7961641162
 C          2.2421109688        0.3513694169        1.3875762106
 O          2.4199671234       -0.4705342124        2.3077080524
 H          0.4235311832       -0.8536695272       -0.6730925075
 C          0.6711341806       -1.8534850554       -0.3474769902
 C          2.0045598959       -2.2076737716       -0.1818806867
 C          2.2966100322       -3.5109335358        0.1967068188
 C          1.2743914353       -4.4198375171        0.4190531406
 C         -0.0511309323       -4.0486089964        0.2947013696
 C         -0.3535581905       -2.7426715911       -0.0803447599
 N         -1.6895896896       -2.3047226572       -0.1408854331
 S         -2.0611559858       -0.6864667435       -0.3675037691
 O         -1.8117064770       -0.2730066584       -1.7329853315
 O         -1.4242618259        0.0775554833        0.6746892491
 C         -3.8197944805       -0.7496531544       -0.0812156689
 C         -4.6904864603       -0.7606961307       -1.1539820341
 C         -6.0533601431       -0.8371508514       -0.9119158235
 C         -6.5199453192       -0.9026450654        0.3921231909
 C         -5.6341477728       -0.8884665003        1.4595650200
 C         -4.2708873652       -0.8117403720        1.2235511970
 H         -3.5441631727       -0.7884566484        2.0192806686
 H         -5.9998809769       -0.9362999892        2.4726032189
 H         -7.5805745573       -0.9620814905        0.5785344340
 H         -6.7441579943       -0.8445846525       -1.7395560959
 H         -4.2816681558       -0.6981044828       -2.1496545382
 H         -2.3369829330       -2.9428519489       -0.5776979009
 H         -0.8454869135       -4.7508343182        0.4919238828
 H          1.5164544807       -5.4313796510        0.7079360417
 H          3.3233559230       -3.8148709238        0.3206926552
 C          3.0555254625       -1.1539914144       -0.4444062744
 H          3.1703745356       -1.0506154619       -1.5348675132
 C          4.4031504692       -1.4849078401        0.1605987195
 C          5.4004217276       -2.2976432313       -0.6086082150
 C          5.6281289401       -0.8312166222       -0.4032195514
 H          6.4041010405       -0.5166392208        0.2781146767
 H          5.4906038573       -0.1676967202       -1.2447356285
 H          5.1194027158       -2.6306605928       -1.5964208464
 H          6.0260764217       -2.9915489695       -0.0678060772
 H          4.3532683816       -1.6128254473        1.2358552062
 O          2.4928357081        1.0615296475       -2.1449058889
