  62
        -98.94129707
 C          2.5275956589       -0.3270923715       -0.0313011744
 C          2.1530090329       -1.3455660989        0.8740926639
 C          1.4668016010       -2.5150308312        0.3022233779
 C          1.2440672731       -2.5635856182       -1.0225526818
 C          0.6087314501       -3.6663874123       -1.8338292858
 C         -0.6345370919       -4.3538350736       -1.2571898867
 C         -1.5718319070       -3.4369994706       -0.4572635083
 H         -1.2986520698       -2.3893532853       -0.6030568361
 H         -2.5911361222       -3.5591621465       -0.8299926582
 C         -1.5800004783       -3.7546513277        1.0397277143
 H         -2.4877680711       -3.3348375729        1.4802271618
 H         -1.6162990007       -4.8391105612        1.1709974311
 C         -0.4020333855       -3.1900037818        1.8318399554
 H         -0.4867764656       -2.0999892905        1.8730055426
 H         -0.4807062665       -3.5550290277        2.8593939516
 C          0.9936055255       -3.5428278800        1.2896486459
 H          1.6986516721       -3.5035805680        2.1248862449
 H          1.0107331480       -4.5454132283        0.8681475409
 H         -1.1773238504       -4.7793977264       -2.1031607862
 H         -0.3310331032       -5.1882668420       -0.6262034411
 H          0.3562070812       -3.2000965368       -2.7892638143
 H          1.3742564098       -4.4222892046       -2.0349105264
 O          1.6446195283       -1.5686294936       -1.8635486238
 C          2.2410558251       -0.4129107719       -1.3925792309
 O          2.4849502917        0.4348810183       -2.2739395335
 O          2.3893423505       -1.2837132162        2.1126187653
 C          3.1144830239        0.9661151202        0.5093789891
 C          2.1274101907        2.0724611355        0.2238302364
 C          2.4590118362        3.2902306227       -0.3538443067
 C          1.4676949600        4.2067316019       -0.6639690109
 C          0.1350043250        3.9222296211       -0.4301002665
 C         -0.2034567753        2.7144944546        0.1712300514
 C          0.7939272189        1.8228737620        0.5224522714
 H          0.5205833590        0.8905145536        0.9953019081
 N         -1.5419145555        2.3717783811        0.4351394754
 S         -1.9421133812        0.7303381395        0.3204627064
 O         -1.6721485347        0.1089404628        1.5927096854
 O         -1.3179460489        0.1374871762       -0.8399817154
 C         -3.7057601953        0.8453846473        0.0838539568
 C         -4.5074564328        1.0871885483        1.1836608485
 C         -5.8754010475        1.2119455203        1.0006308088
 C         -6.4160088843        1.0929957671       -0.2713286099
 C         -5.5993315251        0.8469669832       -1.3647270980
 C         -4.2298173012        0.7233566599       -1.1888025220
 H         -3.5550068626        0.5253371410       -2.0064227042
 H         -6.0219933739        0.7508710340       -2.3518253020
 H         -7.4810149889        1.1895555739       -0.4112491137
 H         -6.5137602241        1.4000421612        1.8486589294
 H         -4.0420413452        1.1609465155        2.1526470448
 H         -2.2017596278        2.9539301699       -0.0626911089
 H         -0.6368584342        4.6227102476       -0.7105632855
 H          1.7366203422        5.1470658229       -1.1209962817
 H          3.4886502618        3.5139175376       -0.5803787479
 H          3.1802073826        0.8275380156        1.5991578880
 C          4.4999539937        1.2233127433       -0.0404443301
 C          5.4829637246        2.0363182296        0.7466112791
 C          5.6736711518        0.5565567703        0.6099176517
 H          6.4723228014        0.1928784795       -0.0187765334
 H          5.4742948071       -0.0685975760        1.4681105017
 H          6.1562945938        2.6894827165        0.2125488824
 H          5.1612798319        2.4185160248        1.7035736509
 H          4.5075330550        1.3093100159       -1.1210501350
