  62
        -98.94591368
 C          1.2956297412        1.4213991474        0.6224716209
 C          2.3741314711        1.3157476895       -0.2904821425
 C          3.3712823089        0.2756178727        0.0104387761
 C          3.2164723669       -0.5014607970        1.0966114903
 C          4.1328713888       -1.6237300959        1.4894247362
 C          3.6918359963       -2.9617572699        0.8787355279
 C          3.3834889051       -2.8899130311       -0.6166411555
 H          3.1073823201       -3.8961549211       -0.9387463478
 H          2.5145064813       -2.2471872123       -0.7742494776
 C          4.5476138858       -2.3842165847       -1.4797374906
 H          5.4836962514       -2.4659458878       -0.9258895808
 H          4.6354301772       -3.0246696003       -2.3597998855
 C          4.3834807620       -0.9506462347       -1.9870300917
 H          3.4052430572       -0.8379594327       -2.4609104213
 H          5.1416950101       -0.7729130461       -2.7543024959
 C          4.5367944498        0.1501754881       -0.9301995217
 H          5.4649054727        0.0006262776       -0.3746509030
 H          4.6015404361        1.1076408044       -1.4550960631
 H          4.4816904955       -3.6945430888        1.0539395429
 H          2.7953028622       -3.3045897811        1.4004890310
 H          5.1443533383       -1.3839339253        1.1665296369
 H          4.1217998879       -1.7096868503        2.5775175818
 O          2.1709805740       -0.3685515722        1.9534347982
 C          1.1958093016        0.5913290999        1.7421958466
 O          0.3034230014        0.6083483419        2.6148715348
 H         -2.2203413888        1.2616233521        0.8307757205
 C         -1.9813908067        1.3528294463       -0.2182743875
 C         -0.7901161052        1.9496144199       -0.6085823522
 C         -0.5108588888        2.0599215180       -1.9668919121
 C         -1.4089249877        1.5851927495       -2.9051123123
 C         -2.5911146271        0.9824478704       -2.5126203324
 C         -2.8774374090        0.8623043767       -1.1580891600
 N         -4.0724399927        0.2606641597       -0.7295112628
 S         -4.0428773252       -0.8099917713        0.5562858907
 O         -5.2653797927       -1.5710802328        0.4120932270
 O         -3.8888559071       -0.0932282070        1.7954052775
 C         -2.6384890878       -1.8605450723        0.2368066387
 C         -1.4602665297       -1.6849914525        0.9314288064
 C         -0.3743271718       -2.4866244311        0.6151985764
 C         -0.4810552420       -3.4413156003       -0.3828851248
 C         -1.6751180160       -3.6084539426       -1.0686805896
 C         -2.7634227215       -2.8102813193       -0.7596193836
 H         -3.7123120421       -2.9188316481       -1.2595608334
 H         -1.7572033521       -4.3554367479       -1.8415920173
 H          0.3702311375       -4.0584938791       -0.6234305420
 H          0.5490741056       -2.3474700256        1.1554197450
 H         -1.3923848545       -0.9349845295        1.7041854729
 H         -4.6516101704       -0.0910437659       -1.4784001621
 H         -3.2896369515        0.6102911812       -3.2464690492
 H         -1.1822539700        1.6788533735       -3.9563004389
 H          0.4237730178        2.4971441241       -2.2792564383
 C          0.1718881574        2.4333605682        0.4507693855
 H         -0.3681611587        2.4408247712        1.4075202950
 C          0.6728562675        3.8373774173        0.1766190070
 C         -0.2582550483        4.9905504088        0.3933437958
 C          0.8940058360        4.7711884118        1.3263410628
 H          1.7309406863        5.4520484177        1.2836797768
 H          0.6831096114        4.4018834386        2.3199128116
 H         -0.2150330160        5.8244336718       -0.2902164759
 H         -1.2515743850        4.7686959029        0.7547147220
 H          1.3690857681        3.8985353793       -0.6486860900
 O          2.5235096503        2.0454325054       -1.3042945543
