  62
        -98.93773552
 C         -0.5864565397       -1.6118964330       -0.5694296671
 C         -1.6910725083       -1.7863307540        0.2990861803
 C         -2.7653013136       -0.7795331114        0.2421297305
 C         -2.6288516176        0.2656156642       -0.5925996806
 C         -3.5714640909        1.4197725359       -0.8234898000
 C         -4.1587432645        2.0797890689        0.4336815186
 C         -5.6540168413        1.8135305870        0.6158675833
 H         -6.0771379723        2.6086263688        1.2338356192
 H         -6.1374778310        1.8676473406       -0.3617543409
 C         -6.0010075134        0.4811481201        1.2777322933
 H         -5.7346716344        0.5243393026        2.3361960925
 H         -7.0849915478        0.3567960854        1.2201753793
 C         -5.3331473219       -0.7513698843        0.6641094044
 H         -5.9414705453       -1.6211674114        0.9211932013
 H         -5.3225346398       -0.6804912932       -0.4227134216
 C         -3.9123585154       -1.0082999035        1.1880728253
 H         -3.7352817515       -0.4219082830        2.0954118536
 H         -3.8156177654       -2.0564818997        1.4890173031
 H         -3.6031598688        1.7573604546        1.3140824238
 H         -4.0173642978        3.1583933200        0.3435696924
 H         -2.9919941185        2.1515957305       -1.3905592127
 H         -4.3796961422        1.0853682003       -1.4784148352
 O         -1.5478027639        0.4004026979       -1.4083694608
 C         -0.5004475559       -0.5074635306       -1.4166216934
 O          0.4100595025       -0.2023299575       -2.2104234905
 O         -1.7829390823       -2.7634364174        1.0933448869
 C          0.5281026001       -2.6360790476       -0.4656770604
 C          1.5856756960       -2.1908317698        0.5190843157
 C          2.1941879910       -3.1018593434        1.3754889584
 C          3.1481448837       -2.6833045580        2.2855352260
 C          3.4920887955       -1.3463829876        2.3815121578
 C          2.8885670035       -0.4288006488        1.5305061100
 C          1.9663165601       -0.8599514415        0.5894197883
 H          1.5219844003       -0.1366959922       -0.0745869385
 N          3.1882844317        0.9403452508        1.5941808515
 S          1.9421373014        2.0447923749        1.3967228755
 O          2.4152288361        3.2387702823        2.0702598501
 O          0.6823124758        1.5192795041        1.8733652738
 C          1.8674578248        2.3808330694       -0.3475565016
 C          0.6538773725        2.7512740842       -0.8892589540
 C          0.5883156618        3.0642762218       -2.2365431894
 C          1.7334894725        3.0047582827       -3.0134527856
 C          2.9457577647        2.6349076038       -2.4529148992
 C          3.0190636135        2.3223673876       -1.1055086039
 H          3.9425346176        2.0202313555       -0.6397030499
 H          3.8327504121        2.5815472650       -3.0637257875
 H          1.6772022672        3.2390572406       -4.0648806315
 H         -0.3574884198        3.3383156592       -2.6761541504
 H         -0.2174120411        2.7635092470       -0.2523614516
 H          3.8114077746        1.2106440359        2.3416392931
 H          4.2136834558       -1.0134234750        3.1118433437
 H          3.6134279868       -3.4009197255        2.9439736498
 H          1.9030208565       -4.1407405589        1.3375481663
 H          0.0578180265       -3.5413979295       -0.0565565530
 C          1.1701624608       -2.9861587229       -1.7944549734
 C          1.7817060540       -4.3402110321       -1.9860989239
 C          0.5069777906       -3.9870376376       -2.6906199471
 H          0.5299099691       -3.8163132676       -3.7561144763
 H         -0.4106936173       -4.4375753227       -2.3409690085
 H          2.6870262125       -4.4158200553       -2.5681624054
 H          1.7262416655       -5.0399812616       -1.1664340841
 H          1.6542313714       -2.1410526022       -2.2661797818
