  62
        -98.93586203
 C         -2.3734939789       -1.2283101407        0.0204184300
 C         -3.3235630590       -0.6605402012        0.9110035202
 C         -4.2943724692        0.2751400788        0.3312895805
 C         -4.2624009894        0.5268852892       -0.9891989094
 C         -5.2068920396        1.4068366392       -1.7643400591
 C         -5.1690969799        2.9095146491       -1.4254154487
 C         -6.2017006099        3.3476289486       -0.3794425585
 H         -7.0287241698        2.6365740284       -0.3831631186
 H         -6.6167465402        4.3121769286       -0.6789142081
 C         -5.6757595299        3.5125405483        1.0495626616
 H         -6.5377492598        3.5802256379        1.7167532816
 H         -5.1296928700        4.4559032084        1.1217594518
 C         -4.7466550996        2.4069952083        1.5519756212
 H         -4.6123986995        2.5377218181        2.6275379312
 H         -3.7578530596        2.5247529487        1.1020109611
 C         -5.2369005093        0.9739231583        1.2673253208
 H         -6.2459411593        0.9857227282        0.8580479409
 H         -5.2461064691        0.3928042781        2.1915069806
 H         -5.3743491601        3.4471923793       -2.3524797285
 H         -4.1637223799        3.1853468492       -1.1081995287
 H         -4.9356558797        1.2709215995       -2.8133078491
 H         -6.2239760895        1.0310908089       -1.6315932291
 O         -3.3483448893       -0.0502211604       -1.8135836296
 C         -2.3752077091       -0.9170111603       -1.3389034700
 O         -1.6029344191       -1.3220551599       -2.2328586401
 H          0.3238484810       -1.0789052498       -1.1726233802
 C          0.7124927810       -1.0138773400       -0.1669297502
 C         -0.0357051888       -1.5243089405        0.8842981397
 C          0.4772078813       -1.4286494707        2.1725824897
 C          1.7064441312       -0.8345486505        2.3987195498
 C          2.4448104410       -0.3187020701        1.3488695499
 C          1.9407393009       -0.4077388598        0.0577079199
 N          2.6636201107        0.1405018506       -1.0150055200
 S          4.2970650108       -0.2129367290       -1.1551326203
 O          4.6110570506       -0.0135312985       -2.5530362802
 O          4.6093006511       -1.5124865591       -0.6064305506
 C          5.0913924906        1.0605903809       -0.1963363899
 C          4.7840680203        2.3766496309       -0.4811073396
 C          5.3988611501        3.3806189309        0.2497855807
 C          6.3081859703        3.0537871508        1.2449038505
 C          6.6093595606        1.7278775007        1.5157439601
 C          5.9969087707        0.7186332108        0.7889351199
 H          6.1950197410       -0.3260289292        0.9686632896
 H          7.3166827707        1.4759938007        2.2894607700
 H          6.7844795101        3.8374540707        1.8126464907
 H          5.1666819299        4.4127714709        0.0419655010
 H          4.0740200702        2.5880527210       -1.2633151694
 H          2.1942878907        0.0458791608       -1.9042624500
 H          3.4013597209        0.1473886901        1.5194902299
 H          2.0929758512       -0.7682775507        3.4041739698
 H         -0.0999793486       -1.8150289211        2.9998508696
 C         -1.3676909687       -2.1903241307        0.6300084696
 H         -1.7930592685       -2.4639006811        1.6049788196
 C         -1.1797083085       -3.4582888104       -0.1808126808
 C         -0.6435757482       -4.6812779805        0.4981985688
 C         -2.0784274882       -4.6303674407        0.0681941590
 H         -2.3888019381       -5.2288856205       -0.7750791312
 H         -2.8358432182       -4.5254254611        0.8312641491
 H         -0.4280297581       -4.6129935407        1.5536686389
 H          0.0368610319       -5.3161222902       -0.0484152614
 H         -0.8740755386       -3.2756154101       -1.2029844007
 O         -3.3645503088       -0.9366401215        2.1392488001
