  62
        -98.94319978
 C         -1.4842454614       -1.5295505799        0.1623955104
 C         -2.4806681912       -0.9926619792        1.0161949602
 C         -3.2468655108        0.1390119609        0.4838857697
 C         -2.9619498206        0.6197205102       -0.7401090005
 C         -3.7042991002        1.7188443802       -1.4517074910
 C         -3.2515708497        3.1372211302       -1.0821878317
 C         -3.6455371895        3.6038086809        0.3192364281
 H         -4.7179060395        3.4663109614        0.4614128482
 H         -3.4470748491        4.6762794409        0.3693952077
 C         -2.8803534297        2.9051784911        1.4520244684
 H         -2.5312909795        3.6495459913        2.1713116681
 H         -1.9937238799        2.4136406606        1.0439528187
 C         -3.7046830401        1.8774046318        2.2277214489
 H         -4.5231039299        2.3807460223        2.7474265587
 H         -3.0613118003        1.4175267419        2.9826107991
 C         -4.2938508705        0.7566758616        1.3606909294
 H         -5.1178416304        1.1407119517        0.7593215792
 H         -4.6779670308       -0.0232935479        2.0229262798
 H         -3.6973422994        3.8208575600       -1.8083026920
 H         -2.1675345996        3.1920160997       -1.1891330317
 H         -4.7730593302        1.6155843606       -1.2600238410
 H         -3.5285593802        1.5695267596       -2.5191590810
 O         -1.9571525608        0.1184326495       -1.5033410403
 C         -1.1801452312       -0.9513064506       -1.0720118598
 O         -0.2827366913       -1.2725230513       -1.8693348597
 O         -2.7224371913       -1.4437414686        2.1683361904
 C         -0.6876954518       -2.7181100300        0.6709399409
 C          0.7867383983       -2.4658603906        0.4860628608
 C          1.6130199580       -3.2524367113       -0.3042535088
 C          2.9533753081       -2.9366078318       -0.4480301090
 C          3.4985103585       -1.8394818118        0.1925878205
 C          2.6793274088       -1.0448072811        0.9850654502
 C          1.3389075287       -1.3640028105        1.1294398103
 H          0.7006790289       -0.7403857600        1.7443501101
 N          3.2240739792        0.0805167690        1.6412942197
 S          3.8621951597        1.2937883883        0.6789665191
 O          5.0070951395        0.7781382576       -0.0263556906
 O          4.1081416901        2.4001230086        1.5763087986
 C          2.5686907898        1.7204019383       -0.4709402810
 C          1.7383768702        2.7809148387       -0.1676342815
 C          0.7083091303        3.0946459487       -1.0386517816
 C          0.5178128900        2.3361024583       -2.1838709713
 C          1.3559283296        1.2701318878       -2.4705107408
 C          2.3939783995        0.9573522978       -1.6078767407
 H          3.0638372792        0.1362299675       -1.8032419103
 H          1.1944508894        0.6693362075       -3.3501790906
 H         -0.2899406199        2.5715405183       -2.8594601014
 H          0.0610312006        3.9298017291       -0.8195119020
 H          1.9230280604        3.3465532091        0.7317999082
 H          2.5883668394        0.4935019695        2.3096010595
 H          4.5363417786       -1.5721157922        0.0764659004
 H          3.5828468679       -3.5531827423       -1.0717725287
 H          1.2033043177       -4.0992883814       -0.8292992684
 H         -0.8932322118       -2.7390188794        1.7546493110
 C         -1.1456247423       -4.0611027401        0.1225273415
 C         -2.5700282524       -4.2798581697       -0.2892946484
 C         -1.4848994024       -4.2709828706       -1.3216856984
 H         -1.2089417727       -5.2094647209       -1.7802099879
 H         -1.4075544521       -3.4228928509       -1.9831468887
 H         -3.0383689027       -5.2200460095       -0.0392778579
 H         -3.2397480421       -3.4332313595       -0.2438857787
 H         -0.6631371826       -4.8891459400        0.6331479619
