  62
        -98.93821569
 C         -1.9068738800       -0.2504447407       -0.0267465792
 C         -2.9820621401       -0.5199926404        0.8551941808
 C         -4.2180514801        0.2491620595        0.6406914805
 C         -4.2568595900        1.1730067292       -0.3346414698
 C         -5.3875501000        2.1009253791       -0.7023288703
 C         -6.8042598500        1.5108152690       -0.7377431802
 C         -6.8847338599        0.0385323689       -1.1671958597
 H         -7.6252518598       -0.0586144414       -1.9633219297
 H         -5.9253818599       -0.2858724112       -1.5738585795
 C         -7.2971527600       -0.8943167607       -0.0258427394
 H         -8.1092419300       -0.4247117606        0.5335271204
 H         -7.6885200599       -1.8205384309       -0.4534641291
 C         -6.1799054401       -1.2799202304        0.9429900108
 H         -5.4731234900       -1.9493894406        0.4454097611
 H         -6.6277871801       -1.8417964401        1.7661210310
 C         -5.3764020801       -0.1067452602        1.5276109205
 H         -6.0151682802        0.7516801399        1.7203814101
 H         -4.9410385802       -0.4367424499        2.4746961006
 H         -7.3837554299        2.1242369388       -1.4298363304
 H         -7.2689471400        1.6202749893        0.2411710997
 H         -5.1270878199        2.4876350887       -1.6905534204
 H         -5.3699473100        2.9486784593       -0.0111054005
 O         -3.1887921599        1.4198546089       -1.1439681798
 C         -1.9969174099        0.7222295390       -1.0209499495
 O         -1.1260748699        1.0581378587       -1.8463933395
 O         -2.9099883501       -1.3636429101        1.7873742311
 C         -0.6135228500       -1.0252963006        0.1620555812
 C          0.4454683399       -0.0757965004        0.6619839810
 C          0.4612351998        0.2783108700        2.0082374709
 C          1.4011762598        1.1667739802        2.4964516506
 C          2.3437386098        1.7259947700        1.6504160705
 C          2.3293260400        1.3851440695        0.3053491506
 C          1.3934876400        0.4825882193       -0.1812335391
 H          1.3889747301        0.2373684290       -1.2314851991
 N          3.2990355900        1.9434152792       -0.5584962195
 S          4.8728561400        1.4469364593       -0.2678905892
 O          5.3216285199        2.0180578098        0.9762223707
 O          5.6262873001        1.8065540490       -1.4475718792
 C          4.7546460600       -0.3265642606       -0.1206886786
 C          4.8388476401       -1.0931007910       -1.2658868383
 C          4.6640696901       -2.4639408210       -1.1693861679
 C          4.3944670500       -3.0397389706        0.0627699223
 C          4.3094082899       -2.2554727802        1.2026846320
 C          4.4904909499       -0.8845733202        1.1139876716
 H          4.4371762798       -0.2422718899        1.9775512314
 H          4.0986882799       -2.7052869799        2.1596498622
 H          4.2500964800       -4.1063127005        0.1342560527
 H          4.7339855202       -3.0777197213       -2.0532174676
 H          5.0522895502       -0.6054529913       -2.2037645285
 H          3.0758373001        1.8046200489       -1.5342835794
 H          3.0933956698        2.4117259601        2.0111918904
 H          1.4009060397        1.4287604206        3.5437111506
 H         -0.2813354002       -0.1499767297        2.6669816309
 H         -0.8252220301       -1.7481924603        0.9613351914
 C         -0.2080443299       -1.7797288810       -1.0870835085
 C          0.8895941001       -2.7968464110       -1.0000344481
 C         -0.5278109799       -3.2386278710       -1.2024552480
 H         -0.8154444198       -3.6269151414       -2.1680393279
 H         -1.0420915899       -3.7044541708       -0.3748486179
 H          1.5801324602       -2.8828951812       -1.8247902380
 H          1.3413357000       -2.9563582706       -0.0328403280
 H         -0.2789902398       -1.1847159613       -1.9896642387
