  62
        -98.94630291
 C          1.6872942218        1.3550160890       -0.0983724107
 C          2.7032047016        0.8086862982        0.7192825591
 C          3.2329374603       -0.4916751923        0.2929859691
 C          2.7427948695       -1.0826578820       -0.8124402407
 C          3.1826625282       -2.4078869924       -1.3731264107
 C          2.5071048474       -3.6166305918       -0.7112057504
 C          2.9856008975       -3.9395947221        0.7047415695
 H          2.5982767267       -4.9286929017        0.9571956696
 H          4.0740091874       -4.0042587630        0.7168764292
 C          2.5156842586       -2.9405193516        1.7713476995
 H          1.6837968890       -2.3519643709        1.3761544997
 H          2.1377721784       -3.4841779812        2.6403822196
 C          3.6031145096       -1.9882357625        2.2691364891
 H          4.3803479692       -2.5568194831        2.7845521290
 H          3.1550656003       -1.3013736620        2.9921793992
 C          4.2599339500       -1.1509077331        1.1638452989
 H          4.8501587308       -0.3625034036        1.6376420387
 H          4.9249675793       -1.7731743537        0.5655833988
 H          2.7012136165       -4.4859128220       -1.3434073104
 H          1.4290292375       -3.4444928508       -0.6956781702
 H          4.2656505482       -2.5016961033       -1.2886985410
 H          2.9156940380       -2.4011157323       -2.4316645107
 O          1.7729468198       -0.5176228612       -1.5791815205
 C          1.2137708909        0.7064040193       -1.2402460805
 O          0.3277450911        1.1015099100       -2.0178216603
 O          3.1394710123        1.3748229279        1.7584975690
 C          1.0501140130        2.6751373196        0.2931057994
 C         -0.4422911771        2.5009579309        0.4328178798
 C         -1.3668336764        3.4130349716       -0.0579836400
 C         -2.7251351566        3.1776662628        0.0748712104
 C         -3.1916824674        2.0341602932        0.6962025206
 C         -2.2747217981        1.1183274725        1.1974793304
 C         -0.9166147179        1.3632548013        1.0751381200
 H         -0.2068414084        0.6464617307        1.4706983899
 N         -2.7341031389       -0.0584407470        1.8265154106
 S         -3.6546628701       -1.1176625663        0.9111144910
 O         -4.8939705996       -0.4714113853        0.5619082812
 O         -3.7615502009       -2.3149662362        1.7139729911
 C         -2.7056471707       -1.4561870373       -0.5600969993
 C         -1.9628748317       -2.6185435179       -0.6198409693
 C         -1.2099523123       -2.8732610587       -1.7544627395
 C         -1.1953490918       -1.9564331488       -2.7940001196
 C         -1.9413324107       -0.7913243581       -2.7158789295
 C         -2.7100146102       -0.5384494674       -1.5914441693
 H         -3.3075909194        0.3539384532       -1.5032508692
 H         -1.9168634103       -0.0729786982       -3.5183890996
 H         -0.5953882821       -2.1471118294       -3.6697795597
 H         -0.6383554131       -3.7852771892       -1.8270246196
 H         -2.0005904921       -3.3034599878        0.2126425507
 H         -1.9956879592       -0.5767754976        2.2816003505
 H         -4.2454366076        1.8247753442        0.7847452109
 H         -3.4315449461        3.8936462234       -0.3171508095
 H         -1.0251758058        4.3064670913       -0.5541573602
 H          1.4659662935        2.9236174893        1.2812496493
 C          1.4416268737        3.7630110491       -0.6852393208
 C          1.5599211751        5.1863133091       -0.2305308910
 C          2.7923412443        4.3982277480       -0.5546065712
 H          3.3394651743        4.6381646974       -1.4539062314
 H          3.4184136142        4.0655730175        0.2605319887
 H          1.2630843456        5.9715040593       -0.9094611109
 H          1.3543853155        5.3994633594        0.8076202191
 H          1.0728657633        3.5718697894       -1.6867802007
