  62
        -98.94458073
 C         -1.6502790609       -1.1213178720       -0.5324663358
 C         -1.5719436137        0.2146617778       -0.0673679913
 C         -2.7563923638        0.7148485193        0.6489810298
 C         -3.8149238978       -0.0938268262        0.8320108577
 C         -5.1034941999        0.3103581029        1.4865101339
 C         -6.1043562931        0.8517460950        0.4556885975
 C         -5.5174175781        1.9046898425       -0.4844952958
 H         -4.7544333015        1.4370772180       -1.1107538874
 H         -6.3215425107        2.2321215243       -1.1469734245
 C         -4.9116686509        3.1239634539        0.2247544212
 H         -5.2427032542        4.0287742440       -0.2893544827
 H         -5.2827379149        3.1793908763        1.2488394023
 C         -3.3820771648        3.1543196257        0.2391814685
 H         -3.0640196529        4.1469506494        0.5691228305
 H         -3.0030887348        3.0087230898       -0.7753263006
 C         -2.7065534720        2.1282017697        1.1577388471
 H         -3.1363206146        2.1914142779        2.1598172970
 H         -1.6450693446        2.3850353991        1.2285115372
 H         -6.9563164611        1.2739515178        0.9916879014
 H         -6.4633952216        0.0157404694       -0.1489569708
 H         -5.5333095372       -0.5679136062        1.9712153771
 H         -4.8991703998        1.0659137128        2.2428209728
 O         -3.8482337321       -1.3757048580        0.3870735963
 C         -2.7734113744       -1.9188786422       -0.2952897408
 O         -2.9389313011       -3.1057145055       -0.6429413975
 O         -0.5840498001        0.9721324378       -0.2454663707
 C         -0.4988960803       -1.7981030199       -1.2636598220
 C          0.5355271219       -2.2063736355       -0.2410630695
 C          0.4219768515       -3.4464058373        0.3817263926
 C          1.3350833928       -3.8373522498        1.3425137825
 C          2.3714310674       -2.9960928008        1.7073913274
 C          2.4885343732       -1.7514944228        1.0995369314
 C          1.5786766659       -1.3681242921        0.1232935850
 H          1.6697492183       -0.3970093942       -0.3300959937
 N          3.5422275483       -0.8893307075        1.4358315885
 S          3.2619950522        0.7561001339        1.6276624206
 O          4.3618939704        1.1980652518        2.4627719078
 O          1.9389179736        1.0128603817        2.1427458947
 C          3.4926886415        1.4294606072       -0.0032812722
 C          4.7547184091        1.3253801273       -0.5558334053
 C          4.9759595574        1.8377915693       -1.8233094520
 C          3.9362925020        2.4449990843       -2.5122091270
 C          2.6771113936        2.5433025663       -1.9413668228
 C          2.4473104322        2.0330454470       -0.6721280344
 H          1.4724458719        2.0702397348       -0.2107995601
 H          1.8654174393        3.0102331561       -2.4767483090
 H          4.1066974566        2.8430917295       -3.5002712145
 H          5.9540092791        1.7621983482       -2.2705708855
 H          5.5348668931        0.8541365926        0.0183987470
 H          4.1524352940       -1.2380125727        2.1610990841
 H          3.0836915851       -3.2978897595        2.4607097269
 H          1.2377680697       -4.8029257702        1.8158280058
 H         -0.4013208952       -4.0927079582        0.1112944247
 H         -0.9213698332       -2.7183208303       -1.6898831067
 C          0.0697790231       -0.9618877738       -2.3908724325
 C          0.9696983172       -1.6169991401       -3.3937706003
 C         -0.4120673839       -1.1935071685       -3.7901532859
 H         -0.5242307454       -0.3410273448       -4.4430729799
 H         -1.1574282230       -1.9606156113       -3.9436532046
 H          1.8098678726       -1.0573107742       -3.7747298323
 H          1.1605880815       -2.6730155542       -3.2753932398
 H          0.2882679849        0.0590504545       -2.1084638772
