  62
        -98.94076033
 C         -2.5720526273       -1.3767624116        0.2389882956
 C         -2.7894648572       -0.5228472142       -0.8698145319
 C         -3.6577990464        0.6403642092       -0.6249520643
 C         -4.1804095312        0.8368122028        0.5981552262
 C         -5.0342068004        2.0060284684        0.9929686135
 C         -4.1830008120        3.1550775109        1.5506962843
 C         -2.9859727219        3.5220327611        0.6730241807
 H         -2.4816817900        4.3673531805        1.1467398915
 H         -2.2741045942        2.6922878895        0.6694523250
 C         -3.3468467920        3.8885055437       -0.7734367521
 H         -4.4069334982        4.1361886102       -0.8395642734
 H         -2.7855214065        4.7813908265       -1.0568964382
 C         -3.0129485172        2.8087684466       -1.8045351871
 H         -1.9744348061        2.4911086544       -1.6740155658
 H         -3.0948447268        3.2533945414       -2.8001032625
 C         -3.9101580682        1.5643657755       -1.7832995824
 H         -4.9584712979        1.8675605767       -1.8139867105
 H         -3.6929321761        0.9832783374       -2.6843841730
 H         -4.8238421099        4.0295618729        1.6769328592
 H         -3.8072121551        2.8632651255        2.5340695450
 H         -5.5990424093        2.3455922913        0.1269980311
 H         -5.7316156506        1.6759679429        1.7646963142
 O         -3.9484101532       -0.0011527539        1.6400036546
 C         -3.1368107488       -1.1116912318        1.4907354838
 O         -3.0027661558       -1.7882856255        2.5296671560
 H         -0.2189209279       -0.8997920768       -1.2676466343
 C          0.3498279860       -1.3267444796       -0.4542277612
 C         -0.2578635762       -2.2550277260        0.3811710676
 C          0.4815033155       -2.7904967625        1.4283516285
 C          1.7958658827       -2.4049605304        1.6301235278
 C          2.3973212509       -1.4810473484        0.7943478978
 C          1.6641283632       -0.9359286071       -0.2518179913
 N          2.2648764556        0.0120814456       -1.1049678169
 S          2.8527879139        1.4044755012       -0.3666358712
 O          2.1279251747        1.7027993193        0.8481266670
 O          2.8358655124        2.4228363799       -1.3939105181
 C          4.5422368474        0.9891290775        0.0113018870
 C          5.3625307266        0.6009061018       -1.0300884936
 C          6.6802010013        0.2711279228       -0.7562985077
 C          7.1529873865        0.3367469262        0.5461494748
 C          6.3176551375        0.7317816390        1.5798340102
 C          4.9979309733        1.0623754297        1.3128382112
 H          4.3093539285        1.3680447859        2.0844937911
 H          6.6869308658        0.7823392814        2.5915383788
 H          8.1786696563        0.0783700747        0.7570601262
 H          7.3328448794       -0.0365745745       -1.5572919515
 H          4.9552061844        0.5662353191       -2.0267195128
 H          1.6735268011        0.2623386567       -1.8858967919
 H          3.4192081696       -1.1749973904        0.9488997823
 H          2.3578033492       -2.8272459098        2.4491055733
 H          0.0127289125       -3.4974499701        2.0972404856
 C         -1.7036735273       -2.6253104115        0.1728172762
 H         -2.0177842724       -3.2344621441        1.0343657839
 C         -1.9500832632       -3.4508089952       -1.0842004962
 C         -0.9036418583       -3.7303895259       -2.1177095481
 C         -1.3528593132       -4.8225711274       -1.1977309847
 H         -1.9605765684       -5.6220609478       -1.5933094499
 H         -0.6708289016       -5.1284505983       -0.4185556895
 H         -1.2186105417       -3.7559121081       -3.1499166495
 H          0.0836914700       -3.3204031318       -1.9750107596
 H         -2.9636670071       -3.3327337340       -1.4529760746
 O         -2.2956583456       -0.7010513015       -2.0145775788
