  62
        -98.94056022
 C          1.1106284668        1.5927956874        0.2539497066
 C          1.9256681351        0.8342364955        1.1333699568
 C          3.0681389301        0.1443742788        0.5232038085
 C          3.2391643223        0.1933443650       -0.8102477023
 C          4.3827499548       -0.4086733773       -1.5816606301
 C          4.2283007689       -1.9044834252       -1.8870914753
 C          4.4227523730       -2.8357774736       -0.6902257119
 H          4.5194427897       -3.8488594373       -1.0853097778
 H          5.3602074367       -2.5921941042       -0.1893260158
 C          3.2693921458       -2.8089469417        0.3218090401
 H          3.0069505996       -3.8325799019        0.5961767355
 H          2.3888309793       -2.3601931011       -0.1429765328
 C          3.5746877797       -2.0617779518        1.6193638410
 H          4.3615063099       -2.5833179954        2.1692208153
 H          2.6739864223       -2.0620737445        2.2384224603
 C          4.0062739133       -0.6041102589        1.4222256823
 H          3.9944836701       -0.1095906196        2.3970579731
 H          5.0204467654       -0.5636686873        1.0239517961
 H          4.9748750144       -2.1585694243       -2.6430718282
 H          3.2414086746       -2.0717210808       -2.3239821524
 H          5.3139116174       -0.2424426495       -1.0381734474
 H          4.4334517606        0.1327515911       -2.5288308778
 O          2.3760018638        0.8471978106       -1.6306821347
 C          1.3050720288        1.5788832161       -1.1277788929
 O          0.6307076750        2.1451796990       -2.0067408717
 O          1.7210775051        0.7557845577        2.3741916408
 C         -0.0007586368        2.4229493279        0.8686060444
 C         -1.2732162843        2.3369623736        0.0637545594
 C         -1.8406955463        3.4300090011       -0.5785018844
 C         -3.0206284246        3.2918752090       -1.2865987322
 C         -3.6678796810        2.0729296331       -1.3503391346
 C         -3.1083320163        0.9701904041       -0.7139192421
 C         -1.9156378960        1.1069429844       -0.0220402635
 H         -1.4809490220        0.2464669564        0.4673712590
 N         -3.7405103280       -0.2791896139       -0.7820555511
 S         -3.6904908166       -1.3559756334        0.4918781396
 O         -4.8616513467       -2.1865988242        0.3048865720
 O         -3.5868669602       -0.6830706646        1.7650543397
 C         -2.2470509899       -2.3462644589        0.1787925140
 C         -1.3101082718       -2.5389069379        1.1733933695
 C         -0.2261927055       -3.3649812425        0.9215757186
 C         -0.0979958121       -3.9779351537       -0.3150381560
 C         -1.0447914764       -3.7690860093       -1.3063800605
 C         -2.1328891185       -2.9486714872       -1.0586377264
 H         -2.8951797366       -2.7707614987       -1.7986876438
 H         -0.9390054962       -4.2457294653       -2.2676573752
 H          0.7452288961       -4.6224249261       -0.5067380732
 H          0.5125481649       -3.5238641172        1.6909385965
 H         -1.4420725752       -2.0391662574        2.1206698062
 H         -4.6374986299       -0.2780797625       -1.2446007527
 H         -4.5945396776        1.9677723415       -1.8940648093
 H         -3.4458681164        4.1475094214       -1.7890622494
 H         -1.3468546879        4.3867621885       -0.5456474422
 H         -0.1935456917        1.9489897717        1.8462651376
 C          0.4138958242        3.8600601296        1.1584962978
 C          1.8346113244        4.2116953427        1.4803368472
 C          1.2246665526        4.6676143119        0.1907637974
 H          0.9935979292        5.7165598834        0.0759256653
 H          1.5337260421        4.1858742027       -0.7241845698
 H          2.0166299657        4.9443900473        2.2522133535
 H          2.5690867350        3.4204512670        1.4490727794
 H         -0.3482813347        4.3927627572        1.7193289528
