  62
        -98.93128029
 C         -2.4294102141       -0.9396562225        0.6894450459
 C         -3.4941364912       -0.8809650871       -0.2411278399
 C         -4.6458952487       -0.0397384532        0.1365664090
 C         -4.6288753387        0.6337631920        1.2984866161
 C         -5.6988893456        1.5130622958        1.8960567633
 C         -6.4331183497        2.4792570084        0.9567590303
 C         -5.5805702304        3.0453505529       -0.1881565783
 H         -5.6798402775        4.1323994742       -0.2004974712
 H         -4.5266511712        2.8169289090       -0.0194245652
 C         -6.0016149952        2.5200985765       -1.5627339168
 H         -7.0924049096        2.5209003300       -1.6193713461
 H         -5.6340288059        3.2071391739       -2.3287990211
 C         -5.4833576060        1.1272874658       -1.9182433656
 H         -4.4032472470        1.1654767521       -2.0845615070
 H         -5.9417366129        0.8290610683       -2.8642813407
 C         -5.7562283179        0.0340326846       -0.8722211974
 H         -6.7230438975        0.1766162261       -0.3959104241
 H         -5.7605258559       -0.9300205107       -1.3878641298
 H         -7.3084497254        1.9857584255        0.5367718429
 H         -6.8022465055        3.2992076807        1.5752231830
 H         -6.4319954078        0.8674458766        2.3885365276
 H         -5.1924779619        2.0803147096        2.6807793386
 O         -3.5711517786        0.5674979575        2.1562100535
 C         -2.4619271976       -0.2075007046        1.8791657450
 O         -1.5797391360       -0.1693249506        2.7614425876
 O         -3.5174615612       -1.5014944172       -1.3360263487
 C         -1.1745828564       -1.7714479215        0.4727984943
 C         -0.2067233015       -1.0472159143       -0.4332791693
 C         -0.4712318834       -0.8612367069       -1.7859026808
 C          0.4342540676       -0.1921409140       -2.5893709316
 C          1.6159520817        0.3030593913       -2.0667523125
 C          1.8887986524        0.1246694291       -0.7172849308
 C          0.9806729617       -0.5526829440        0.0871446595
 H          1.1891854972       -0.6804995578        1.1412731973
 N          3.0776901301        0.6434839447       -0.1731156657
 S          4.4939552287        0.4150296555       -1.0675209665
 O          4.5820460324        1.4614012900       -2.0550747488
 O          4.5442073085       -0.9375620594       -1.5750898829
 C          5.7391082904        0.6561561968        0.1838743076
 C          6.2445649403       -0.4446703808        0.8494602058
 C          7.1970196420       -0.2514109699        1.8375149123
 C          7.6232705824        1.0323987224        2.1432713382
 C          7.1066606955        2.1272224016        1.4663232034
 C          6.1547906185        1.9411439665        0.4764539494
 H          5.7329288293        2.7603893208       -0.0819759421
 H          7.4430501511        3.1231345255        1.7053945612
 H          8.3651222614        1.1799099028        2.9121659971
 H          7.6027654982       -1.1007531872        2.3632414907
 H          5.8920278005       -1.4252319662        0.5718400415
 H          3.2048244310        0.3739255794        0.7927634629
 H          2.3318145874        0.8200995454       -2.6856975671
 H          0.2180536694       -0.0533240864       -3.6383089411
 H         -1.3987585997       -1.2293640407       -2.1961989954
 H         -0.7047320882       -1.8521243409        1.4624004416
 C         -1.4627460964       -3.1720733981       -0.0306797187
 C         -0.4207237094       -4.2327001385        0.1509750719
 C         -1.6820311563       -4.2739755778        0.9595791925
 H         -2.4175942826       -5.0308951449        0.7327412197
 H         -1.6241852491       -4.0226758621        2.0089246406
 H         -0.2867120826       -4.9621111236       -0.6329448475
 H          0.4946450260       -3.9540988749        0.6514060412
 H         -2.0529522036       -3.1945228793       -0.9364316200
