  62
        -98.93427776
 C         -2.5133338274       -0.7414304407        1.0013874539
 C         -3.5815595224       -1.0855328481        0.1362406774
 C         -4.7903006245       -0.2512500587        0.2509080010
 C         -4.8233389590        0.7577335007        1.1387059523
 C         -5.9641264535        1.7178465891        1.3087111734
 C         -5.7850151644        2.9553130599        0.4181491266
 C         -5.4498614540        2.6262868738       -1.0366931683
 H         -5.3778130201        3.5733839471       -1.5759573027
 H         -4.4633631567        2.1583583281       -1.0788893515
 C         -6.4722723021        1.7177290263       -1.7336517968
 H         -7.4117658445        1.7240574580       -1.1797813028
 H         -6.6789048519        2.1215230248       -2.7270664095
 C         -6.0087559819        0.2728773907       -1.9283148608
 H         -5.0231748944        0.2653706540       -2.4008038494
 H         -6.7039483790       -0.2173513841       -2.6151546007
 C         -5.9407163801       -0.5836046029       -0.6575752261
 H         -6.8884921308       -0.5197959165       -0.1193728828
 H         -5.7886615863       -1.6221378142       -0.9660039810
 H         -6.7028262878        3.5448148549        0.4575388156
 H         -4.9733331225        3.5615837710        0.8268830022
 H         -6.8967770929        1.2131738572        1.0643711018
 H         -5.9948796509        2.0339867050        2.3527636334
 O         -3.7832912845        1.0504920237        1.9609494744
 C         -2.6090125547        0.3218092454        1.9037032200
 O         -1.7319994505        0.7025755081        2.7057917440
 H          1.3153512058       -0.5454781145        1.4252367097
 C          1.0193630119       -0.4476491187        0.3893040032
 C         -0.2423221156       -0.8729090186        0.0011406747
 C         -0.6168755104       -0.7245713833       -1.3307658833
 C          0.2558360243       -0.1626347499       -2.2444872070
 C          1.5111757284        0.2679248351       -1.8521102058
 C          1.8944365490        0.1275121775       -0.5251348069
 N          3.1566675039        0.5877063140       -0.1100854027
 S          4.4771803520        0.2643017777       -1.1138132974
 O          4.4884438091        1.2327685503       -2.1811234024
 O          4.4599962941       -1.1231327327       -1.5201567908
 C          5.8328522017        0.5740074746       -0.0008517678
 C          6.2283898421        1.8805649546        0.2148952888
 C          7.2673623922        2.1276409597        1.0978885388
 C          7.8889168846        1.0709348208        1.7468993474
 C          7.4814080672       -0.2348507608        1.5190246507
 C          6.4420493470       -0.4892016654        0.6380011020
 H          6.0982016389       -1.4884625328        0.4235898346
 H          7.9687702666       -1.0540913408        2.0227253503
 H          8.6982096849        1.2659531836        2.4326965420
 H          7.5891080912        3.1410362263        1.2761385826
 H          5.7225381804        2.6685842733       -0.3181183519
 H          3.3576149808        0.3400518883        0.8492501564
 H          2.1985727177        0.7065649242       -2.5572957253
 H         -0.0442721775       -0.0561878542       -3.2764939075
 H         -1.5949704278       -1.0596418320       -1.6411858552
 C         -1.1824014351       -1.4760996166        1.0138736883
 H         -0.7597813057       -1.2811528884        2.0122471304
 C         -1.3279201970       -2.9857038371        0.8767950269
 C         -0.8712440015       -3.7652108459       -0.3157139830
 C         -0.1135260530       -3.8618735277        0.9720098930
 H         -0.1742488078       -4.7737410690        1.5464088270
 H          0.8482937973       -3.3725819794        1.0178861811
 H         -1.4801179122       -4.5998113034       -0.6279331674
 H         -0.4146689029       -3.2322499040       -1.1348073053
 H         -2.2251082679       -3.3484952628        1.3675806836
 O         -3.5508373722       -2.0299384804       -0.6930710410
