  62
        -98.93379867
 C         -1.9995886301       -1.4988201442        0.5536156854
 C         -1.9647809016       -0.2165769080        1.1560161895
 C         -3.0600198828        0.7109970976        0.8304597263
 C         -4.0285393929        0.3101233284       -0.0139061665
 C         -5.2810479067        1.0098026247       -0.4993754950
 C         -5.4635417886        2.5112932352       -0.2938410211
 C         -4.5056061071        3.3889568145       -1.0997071734
 H         -4.7796414990        3.3200302010       -2.1555639801
 H         -4.6477837006        4.4257255772       -0.7871670643
 C         -3.0251170362        3.0327596535       -0.9862166096
 H         -2.8590550713        2.0268547683       -1.3772466099
 H         -2.4677708927        3.7219869512       -1.6262362945
 C         -2.4326742126        3.1222584339        0.4186265866
 H         -2.6027403464        4.1204026147        0.8268007403
 H         -1.3540695810        2.9689557424        0.3294408194
 C         -2.9573683356        2.0853224096        1.4255117033
 H         -2.2325913079        2.0115511446        2.2414379016
 H         -3.9064099102        2.3936640474        1.8569885955
 H         -6.4801208349        2.7484208822       -0.6195880299
 H         -5.4089226910        2.7547654823        0.7631405338
 H         -5.3547717938        0.7824882630       -1.5676673158
 H         -6.1167983194        0.4905641957       -0.0171289046
 O         -4.0233141251       -0.9364460394       -0.5675913336
 C         -3.0098034548       -1.8586980735       -0.3363388306
 O         -3.1487594000       -2.9189304554       -0.9718792216
 H          1.6651520594       -1.7294886908        1.6414520464
 C          1.5535272829       -1.7089007412        0.5661676373
 C          0.3334477280       -2.0471209319        0.0021447859
 C          0.1952091903       -1.9856591197       -1.3812406523
 C          1.2633638003       -1.6104893115       -2.1750808671
 C          2.4825831416       -1.2787025960       -1.6089667454
 C          2.6251809728       -1.3190261420       -0.2284834187
 N          3.8559446926       -0.9816682870        0.3610862068
 S          4.6276345882        0.4345900092       -0.0857350003
 O          5.0899934303        0.3167141038       -1.4452651679
 O          5.6438609403        0.6350581076        0.9211995838
 C          3.3906268189        1.7131019282        0.0321433531
 C          2.6685322097        2.0741291578       -1.0872242798
 C          1.6911903342        3.0490047474       -0.9661179858
 C          1.4554640171        3.6435671090        0.2636613507
 C          2.1859902321        3.2660497785        1.3797935244
 C          3.1604423040        2.2885544938        1.2660547448
 H          3.7579359612        1.9765544325        2.1076124575
 H          1.9966262975        3.7276915321        2.3354851242
 H          0.7004493605        4.4089876158        0.3531373202
 H          1.1174764374        3.3416916563       -1.8310260186
 H          2.8883340689        1.6000267902       -2.0294402685
 H          3.8595186634       -1.0734240754        1.3667707227
 H          3.3227396173       -0.9846061520       -2.2167273313
 H          1.1467802610       -1.5739699494       -3.2478604714
 H         -0.7595726636       -2.2329793941       -1.8225891364
 C         -0.8347351452       -2.4159696573        0.8806755512
 H         -0.5569225879       -2.1624156665        1.9164653035
 C         -1.1723952812       -3.8976146886        0.8549813726
 C         -0.6499110095       -4.8507235300       -0.1734037533
 C         -0.1226747812       -4.9031300618        1.2272194502
 H         -0.3996949144       -5.7343109799        1.8576736081
 H          0.8789780889       -4.5353720992        1.3942272131
 H         -1.3143164294       -5.6311913420       -0.5112633589
 H         -0.0014209990       -4.4693299378       -0.9462642553
 H         -2.1775244626       -4.0900817847        1.2143810419
 O         -1.0499324660        0.1354751163        1.9485344338
