  62
        -98.94462266
 C         -2.6683364294       -1.2921460783        0.1276454280
 C         -2.5582781343       -0.2932720584       -0.8702688752
 C         -3.5403062196        0.7962377163       -0.7909163369
 C         -4.4868243968        0.7812424598        0.1647313349
 C         -5.5703572910        1.8071059409        0.3572981947
 C         -5.1294833035        3.0330397570        1.1686522185
 C         -4.1886699438        3.9921036307        0.4382050616
 H         -4.6210352372        4.2606173897       -0.5261253803
 H         -4.1329811545        4.9040606047        1.0357476143
 C         -2.7664557322        3.4510925443        0.2330352314
 H         -2.5943921870        2.6063043625        0.9044276074
 H         -2.0386802450        4.2207307365        0.5002677518
 C         -2.4534688243        3.0141680414       -1.1982736112
 H         -2.4877274545        3.8815128764       -1.8617234394
 H         -1.4341326137        2.6174564901       -1.2182478154
 C         -3.3976716040        1.9380636845       -1.7511931135
 H         -4.3713744497        2.3726815509       -1.9763791849
 H         -2.9658810493        1.5456051890       -2.6751918245
 H         -4.6542478102        2.6895170099        2.0902922195
 H         -6.0319208638        3.5833412414        1.4442191288
 H         -5.9484857669        2.1281644239       -0.6135353091
 H         -6.3772898690        1.3085438851        0.8984892644
 O         -4.5779735783       -0.2142050532        1.0858279400
 C         -3.6568805375       -1.2471270033        1.1137213894
 O         -3.8266754115       -2.0593426630        2.0447871762
 H          0.4349901054       -1.7984240367       -1.4366272591
 C          0.6269972989       -1.5659977328       -0.4014145206
 C         -0.3285509898       -1.8545602002        0.5592337919
 C         -0.0670124249       -1.5135520728        1.8837375665
 C          1.1225701512       -0.9035562206        2.2334148603
 C          2.0721330674       -0.6099066612        1.2693714756
 C          1.8129547354       -0.9303456229       -0.0556248609
 N          2.7641045553       -0.6252468085       -1.0439816996
 S          3.4538265813        0.9050684034       -1.0387294851
 O          2.5749944593        1.8935504575       -0.4580348364
 O          3.8715940940        1.1362655761       -2.4046741987
 C          4.9045209285        0.7042255482       -0.0236779452
 C          5.1474710333        1.5845436675        1.0123064330
 C          6.2905428315        1.4191414055        1.7791885524
 C          7.1665256405        0.3822800133        1.4972626340
 C          6.9094527114       -0.4920862905        0.4516911827
 C          5.7695106198       -0.3312690478       -0.3194291396
 H          5.5349846272       -0.9870845138       -1.1410276893
 H          7.5926917531       -1.2975980703        0.2358069046
 H          8.0545876110        0.2549850811        2.0959835389
 H          6.4918813599        2.0986071138        2.5918055781
 H          4.4349093326        2.3724903650        1.1985921163
 H          2.4661765429       -0.8755509095       -1.9762486471
 H          2.9957490331       -0.1205281164        1.5323445308
 H          1.3127949671       -0.6489751389        3.2650977539
 H         -0.8193559148       -1.7212033945        2.6325121137
 C         -1.6738551629       -2.4403485321        0.2061197844
 H         -2.0040248518       -3.0684975695        1.0439373913
 C         -1.6740074901       -3.2747608653       -1.0572199692
 C         -1.0338005773       -4.6293980948       -1.0400008599
 C         -2.5251008480       -4.5058437360       -1.1185504832
 H         -3.0154626882       -4.7458526734       -2.0501194076
 H         -3.1073198859       -4.7542299611       -0.2431923232
 H         -0.4986055667       -4.9593797809       -1.9172327795
 H         -0.6015903267       -4.9622627293       -0.1085257472
 H         -1.5956227897       -2.6854315572       -1.9623386250
 O         -1.6973900432       -0.3024690107       -1.7895653104
