  62
        -98.94630276
 C          1.3690616475        1.1183946440       -0.1020981053
 C          2.4492194876        1.0595144096        0.8147393830
 C          3.2140939005       -0.1934960744        0.8340257259
 C          2.8366313160       -1.2044420123        0.0302571276
 C          3.5592385395       -2.5140965169       -0.0928460862
 C          4.6185179329       -2.4610107811       -1.2029163988
 C          5.5375657521       -1.2421237375       -1.1246227268
 H          4.9508298547       -0.3395857220       -1.3102919695
 H          6.2609547850       -1.3274546658       -1.9384731134
 C          6.2841678418       -1.0943674105        0.2084722197
 H          7.3278321826       -0.8491882691        0.0002448662
 H          6.2763558442       -2.0436635927        0.7453807043
 C          5.7412029092        0.0076847577        1.1200823878
 H          5.6627770844        0.9420407468        0.5584173627
 H          6.4635843232        0.1701636627        1.9245134073
 C          4.3833839119       -0.2773503932        1.7743283851
 H          4.2133635427        0.4912330654        2.5339496919
 H          4.4116342140       -1.2494311679        2.2706034216
 H          4.1076986424       -2.4417478568       -2.1683115928
 H          5.2167033103       -3.3727203537       -1.1532950923
 H          2.8332679376       -3.2900625561       -0.3397487504
 H          4.0276223468       -2.7567833148        0.8589532955
 O          1.7741368735       -1.1254320697       -0.8078121006
 C          1.0178001747        0.0328027407       -0.9058636036
 O          0.0906980671       -0.0406792501       -1.7337379220
 O          2.7605256890        2.0128734924        1.5773266377
 C          0.5486402782        2.3981639899       -0.1493647079
 C         -0.7989934752        2.0937467890        0.4539181512
 C         -0.9623664897        2.1553757528        1.8348199004
 C         -2.1583334978        1.7872414131        2.4229235231
 C         -3.2098732656        1.3281304907        1.6482696127
 C         -3.0495132312        1.2498211664        0.2717596220
 C         -1.8615752649        1.6536452954       -0.3206535186
 H         -1.7516894207        1.5781452831       -1.3904682805
 N         -4.0955744570        0.7288048998       -0.5220383348
 S         -4.5249815109       -0.8567333283       -0.1842251563
 O         -5.2532052525       -1.3153979143       -1.3456893091
 O         -5.2446944219       -0.8859960840        1.0648277881
 C         -2.9882327131       -1.7466484719       -0.0195244726
 C         -2.4048441573       -1.8641684889        1.2259090673
 C         -1.1845111792       -2.5104253393        1.3330802143
 C         -0.5758527657       -3.0291724784        0.2012202622
 C         -1.1742163186       -2.9029713130       -1.0419032677
 C         -2.3893823357       -2.2491786291       -1.1564856130
 H         -2.8842899103       -2.1294817495       -2.1069061281
 H         -0.6907464593       -3.2961909651       -1.9214437287
 H          0.3749650588       -3.5311840162        0.2888653906
 H         -0.7098226956       -2.6037340088        2.2970894968
 H         -2.9134196155       -1.4573450526        2.0844038312
 H         -3.9034177182        0.8089804950       -1.5113772690
 H         -4.1412497958        1.0100642314        2.0883543196
 H         -2.2719426671        1.8491431582        3.4946529841
 H         -0.1313801454        2.4819951785        2.4440679620
 H          1.0698761613        3.1032247227        0.5114648977
 C          0.4797312998        2.9935448563       -1.5397146942
 C         -0.0027405175        4.4024842715       -1.7075967859
 C          1.4435640279        4.0747883032       -1.9223546904
 H          1.8315898293        4.0857089390       -2.9299828871
 H          2.1565598734        4.3967648840       -1.1775377475
 H         -0.6096642306        4.6421951524       -2.5672871238
 H         -0.2726267789        4.9453817255       -0.8144032097
 H          0.2192889337        2.2746559518       -2.3065008205
