  62
        -98.94130802
 C         -2.4594358655       -1.3047673327        0.0550229176
 C         -3.0669160613       -0.5243253359        1.0737992072
 C         -3.8139288571        0.6577604923        0.6342314330
 C         -3.8945970933        0.9425627997       -0.6776750330
 C         -4.6355939413        2.0992806796       -1.2911263787
 C         -3.8413527311        3.4126079322       -1.3010190271
 C         -3.6893529143        4.0909289966        0.0610574954
 H         -3.3137654360        5.0991386168       -0.1244646093
 H         -4.6695064169        4.1883937209        0.5290178480
 C         -2.7267373603        3.3771745671        1.0207823621
 H         -2.0892995900        2.6896510035        0.4583453876
 H         -2.0626053167        4.1113259395        1.4828915216
 C         -3.4106995672        2.6097720339        2.1526448832
 H         -2.6365616775        2.1097766955        2.7402766368
 H         -3.9317880937        3.3118331925        2.8073705967
 C         -4.4114022258        1.5460059022        1.6831364863
 H         -5.3172070948        2.0212943003        1.3073519567
 H         -4.6716401769        0.9192375088        2.5395238947
 H         -2.8515506142        3.2209648482       -1.7232359030
 H         -4.3604148026        4.1021814894       -1.9708530945
 H         -4.8499936406        1.8185364739       -2.3245988056
 H         -5.5803168536        2.2482548562       -0.7674609501
 O         -3.3061850120        0.1689045359       -1.6262002495
 C         -2.5555206749       -0.9523325111       -1.2910293286
 O         -2.0538337455       -1.5230983026       -2.2794115967
 O         -2.9963305517       -0.8149200291        2.2974048564
 C         -1.6735975837       -2.5223998204        0.5135773194
 C         -0.2210749349       -2.1602089788        0.6877276813
 C          0.4287152877       -2.3373908946        1.9028951550
 C          1.7505254843       -1.9551725188        2.0573510276
 C          2.4479604516       -1.3859864897        1.0066907707
 C          1.8051917350       -1.2013234188       -0.2103960926
 C          0.4851039641       -1.5918829285       -0.3646204400
 H         -0.0102493537       -1.4407828652       -1.3131718326
 N          2.5037719679       -0.5946045141       -1.2812779531
 S          2.8069050289        1.0484828801       -1.0507365706
 O          1.7761533755        1.6633736452       -0.2434040209
 O          3.0006594109        1.5990033016       -2.3745094255
 C          4.3578858107        1.0593455625       -0.1780630213
 C          4.4199163158        1.5458065088        1.1128476339
 C          5.6380307192        1.5323373250        1.7748036407
 C          6.7647230685        1.0351385538        1.1375829339
 C          6.6855295267        0.5524718006       -0.1605427624
 C          5.4714411574        0.5638330477       -0.8283007405
 H          5.3642790150        0.2040644850       -1.8379714169
 H          7.5638180459        0.1669981212       -0.6526140115
 H          7.7104328592        1.0239813909        1.6560496602
 H          5.7015271115        1.9072243467        2.7836644738
 H          3.5155894041        1.9162365545        1.5686501371
 H          2.0207754662       -0.7091991185       -2.1628991355
 H          3.4764237678       -1.0842548248        1.1205216240
 H          2.2415475478       -2.0973222747        3.0077738521
 H         -0.1162343725       -2.7592217918        2.7346582002
 H         -2.0789785887       -2.7514199247        1.5117392989
 C         -1.8959811601       -3.7486420467       -0.3610310310
 C         -0.8241754833       -4.3909954704       -1.1854041397
 C         -1.3201368929       -5.0709263152        0.0529606075
 H         -1.9291324672       -5.9563466901       -0.0467509980
 H         -0.6663125538       -5.0761177336        0.9120957555
 H         -1.1081884729       -4.7869364516       -2.1486130893
 H          0.1650223220       -3.9614121484       -1.1689436896
 H         -2.8950957712       -3.7649810260       -0.7846277343
