  62
        -98.94487948
 C         -2.6451637753       -0.3077055531        0.0018038085
 C         -2.4618925450       -1.4258187304       -0.8448321555
 C         -1.7839345652       -2.5787182549       -0.2449302315
 C         -1.3889558602       -2.5245933520        1.0404303769
 C         -0.6378588213       -3.5987429879        1.7785248492
 C          0.8777515655       -3.5440170474        1.5361417062
 C          1.3342040173       -4.0599967080        0.1699678158
 H          2.4146983607       -4.2066287235        0.2285431153
 H          0.8825554693       -5.0342784848       -0.0217023198
 C          1.0281932214       -3.1066610412       -0.9940150186
 H          1.9060837808       -3.0283986650       -1.6409815413
 H          0.8315178034       -2.1084714687       -0.5934197065
 C         -0.1410948237       -3.5383033632       -1.8800115309
 H          0.1145412006       -4.4676421534       -2.3944086965
 H         -0.3004209082       -2.7668982769       -2.6382130268
 C         -1.4645900964       -3.7445727563       -1.1325714366
 H         -2.2649281019       -3.8267368909       -1.8724452829
 H         -1.4294589276       -4.6650871227       -0.5508148094
 H          1.2085861023       -2.5093429691        1.6621815770
 H          1.3561809720       -4.1479571170        2.3109082776
 H         -0.8241271661       -3.4351920067        2.8420321384
 H         -1.0223859561       -4.5813936807        1.5030401119
 O         -1.6396810125       -1.4549923365        1.8399412379
 C         -2.2169420956       -0.3036320364        1.3306699893
 O         -2.3150560944        0.6297210676        2.1513492981
 O         -2.8254009390       -1.4481497688       -2.0531500628
 C         -3.1708521688        0.9878482316       -0.5946382771
 C         -2.0636749307        2.0095695417       -0.4912273245
 C         -2.2224759320        3.2898105272        0.0210324129
 C         -1.1256527257        4.1181782242        0.1964628858
 C          0.1500563172        3.6867748588       -0.1197353548
 C          0.3114512457        2.4214009867       -0.6638219516
 C         -0.7875694884        1.6077826649       -0.8674213412
 H         -0.6440770128        0.6141672427       -1.2758921260
 N          1.6259076436        1.9281623457       -0.9193103110
 S          2.1796486657        1.1391447818        0.4812960249
 O          1.4270270113       -0.0767159848        0.7028334756
 O          2.1856878333        2.1016893125        1.5529785330
 C          3.8549625413        0.7412825964        0.0174429423
 C          4.1960991679       -0.5641789813       -0.2768646667
 C          5.4976020802       -0.8452327329       -0.6633674142
 C          6.4275062877        0.1792356292       -0.7520852209
 C          6.0686147830        1.4857779107       -0.4541823408
 C          4.7701672168        1.7730685603       -0.0657559964
 H          4.4455298285        2.7696207090        0.1826960851
 H          6.7950577070        2.2792523650       -0.5233778242
 H          7.4391395201       -0.0423661520       -1.0533965522
 H          5.7791108243       -1.8602616163       -0.8932634210
 H          3.4403487138       -1.3286454265       -0.1896076501
 H          1.6032460922        1.2268372327       -1.6512946751
 H          1.0167495844        4.2995855707        0.0651438969
 H         -1.2656714885        5.1045274496        0.6120917212
 H         -3.2032785218        3.6309186211        0.3104586929
 H         -3.3560028112        0.7708471013       -1.6572886716
 C         -4.4670669405        1.4211708151        0.0521792063
 C         -5.4421957670        2.2664866163       -0.7105261080
 C         -5.7538168109        0.8272744098       -0.4344933115
 H         -6.5183434790        0.5922476719        0.2904972260
 H         -5.6963149305        0.1235912884       -1.2520119994
 H         -5.9978275906        3.0214887049       -0.1753693994
 H         -5.1802320974        2.5428960344       -1.7205727183
 H         -4.3627909010        1.5885111189        1.1182139327
