  62
        -98.94252321
 C         -1.5240294973       -1.3956256317        0.2712403573
 C         -1.9906235034       -0.8933490368       -0.9683426149
 C         -2.8671498314        0.2856735904       -0.8879027053
 C         -3.2005113803        0.7835513056        0.3166833657
 C         -4.0252469398        2.0183967632        0.5346405447
 C         -3.1344719303        3.2637857177        0.6445912616
 C         -2.0882225575        3.3736734901       -0.4649244136
 H         -1.5313907737        4.2985492398       -0.2991071483
 H         -1.3767228217        2.5495019965       -0.3686952237
 C         -2.6716547993        3.3804192986       -1.8853028133
 H         -2.1776835142        4.1646564424       -2.4631397726
 H         -3.7333871336        3.6268461221       -1.8477007310
 C         -2.4853389543        2.0743062454       -2.6602499658
 H         -2.7423276689        2.2611694252       -3.7063974200
 H         -1.4330351904        1.7775716823       -2.6335518263
 C         -3.3321414608        0.8868555672       -2.1841993912
 H         -4.3809658890        1.1832688736       -2.1224967309
 H         -3.2420651971        0.0940369290       -2.9327907903
 H         -2.6158791677        3.2306791092        1.6048951690
 H         -3.7726866479        4.1489948137        0.6328773826
 H         -4.7277371747        2.1312632661       -0.2886416338
 H         -4.5852739767        1.8998219032        1.4635703183
 O         -2.7753810668        0.2414653475        1.4853162711
 C         -1.9192459819       -0.8482683165        1.4926443624
 O         -1.5892556400       -1.2352326773        2.6302520344
 H          0.4070007922       -0.1659372590       -0.5778899283
 C          1.1237559919       -0.9698735070       -0.6855679920
 C          0.7788260924       -2.2553722673       -0.2975921682
 C          1.7314751492       -3.2601207992       -0.4458660024
 C          2.9864273025       -2.9820351725       -0.9564567942
 C          3.3222297473       -1.6958509774       -1.3435680652
 C          2.3750710319       -0.6926503353       -1.2183706424
 N          2.7216959281        0.6319366794       -1.5947656209
 S          3.5239175798        1.4693374454       -0.3838114728
 O          3.7026738553        2.8165672632       -0.8736223060
 O          4.7187667376        0.7397231841       -0.0486463888
 C          2.3834209541        1.4617357358        0.9868690625
 C          2.3557388001        0.3675420869        1.8290841501
 C          1.3903067000        0.3123306240        2.8213804175
 C          0.4741758075        1.3442207297        2.9533797791
 C          0.5184865040        2.4376631165        2.1024088451
 C          1.4751640141        2.4948626393        1.1017035513
 H          1.5394100048        3.3245837465        0.4154307199
 H         -0.1932284947        3.2407752663        2.2099709740
 H         -0.2864269610        1.2807375151        3.7156210127
 H          1.3350710078       -0.5413197752        3.4772159200
 H          3.0859610931       -0.4147003211        1.6965432775
 H          1.9210106193        1.1784997215       -1.8814863073
 H          4.2983305575       -1.4527699232       -1.7297118404
 H          3.7124074153       -3.7743740202       -1.0546366405
 H          1.4841435787       -4.2675947610       -0.1514701843
 C         -0.5646244005       -2.5647287494        0.3245876063
 H         -0.3940905376       -2.7632884995        1.3933955211
 C         -1.1878212411       -3.8024631637       -0.2995572182
 C         -1.0042905907       -5.1519841166        0.3248278021
 C         -2.3338139450       -4.4659316769        0.4020567408
 H         -3.1528029406       -4.8452692500       -0.1901881645
 H         -2.6382710644       -4.0497122156        1.3518258039
 H         -0.9072756726       -6.0099251299       -0.3232122957
 H         -0.4247475012       -5.2145889308        1.2338761299
 H         -1.2358116839       -3.7433313952       -1.3804086920
 O         -1.6813440468       -1.3837947411       -2.0858816798
