  62
        -98.93394143
 C         -2.6370373192       -0.1239176099        0.4821589201
 C         -2.1385670489        0.4840177299       -0.6940023900
 C         -1.5961632087        1.8475147498       -0.5543819901
 C         -1.6359888287        2.4473065799        0.6485768698
 C         -1.0883784884        3.7897667299        1.0632320497
 C         -1.2453651581        4.9601713698        0.0822134295
 C          0.0654881220        5.3693297294       -0.5926760805
 H         -0.0104090778        6.4155178794       -0.8974733306
 H          0.8693216919        5.2997790094        0.1430130696
 C          0.4465812820        4.5565563292       -1.8288290203
 H         -0.2214070479        4.8165441792       -2.6530002104
 H          1.4565282720        4.8523961289       -2.1218644603
 C          0.4150294916        3.0376389992       -1.6499683801
 H          0.8395544815        2.7430231293       -0.6891567100
 H          1.0527234716        2.5890428190       -2.4157036400
 C         -0.9899314385        2.4330873295       -1.7989162301
 H         -1.6750363883        3.1705539595       -2.2267114303
 H         -0.9522031986        1.5987813894       -2.5064535800
 H         -2.0007067581        4.7213017698       -0.6640477905
 H         -1.6104053180        5.8177627999        0.6499017693
 H         -1.5956583885        4.0228618201        2.0027629696
 H         -0.0315048185        3.6477925297        1.3075514198
 O         -2.1820680289        1.8431908702        1.7442293598
 C         -2.6371980591        0.5384865403        1.7061385300
 O         -3.0139429193        0.0883898505        2.8091968300
 H         -0.5566941395       -1.2697591002        1.3754083004
 C         -0.5821277395       -2.0236648103        0.5963757805
 C         -1.7980639496       -2.3643905801        0.0162933705
 C         -1.8007869497       -3.3355320903       -0.9755384994
 C         -0.6133468198       -3.9049792106       -1.4056935692
 C          0.5997860103       -3.5125786207       -0.8682119592
 C          0.6060776104       -2.5705827706        0.1485554307
 N          1.8524055604       -2.0986540208        0.6672474407
 S          2.2207732508       -0.5841427509       -0.0052438195
 O          1.5916016209        0.4723209093        0.7627745803
 O          1.9322023109       -0.6351721511       -1.4143784195
 C          3.9867092908       -0.5368227812        0.2430216606
 C          4.7763487607       -1.3172630415       -0.5792547292
 C          6.1470458207       -1.3291407418       -0.3788173091
 C          6.7027836507       -0.5658203317        0.6374621009
 C          5.8976379608        0.2119308685        1.4551443907
 C          4.5250276908        0.2266091688        1.2597691006
 H          3.8610856509        0.8200248990        1.8679703105
 H          6.3316466409        0.8056251186        2.2435814806
 H          7.7701079707       -0.5761072619        0.7923782709
 H          6.7763987506       -1.9321801220       -1.0132260889
 H          4.2980760106       -1.8864431915       -1.3589284391
 H          1.8013513804       -1.9634963306        1.6697452007
 H          1.5330080702       -3.9132301610       -1.2281311691
 H         -0.6333303799       -4.6458253607       -2.1903830291
 H         -2.7323201597       -3.6268615001       -1.4331961894
 C         -3.0195140395       -1.5949441998        0.4629691103
 H         -3.2476130496       -1.8668953696        1.5040524503
 C         -4.2430068494       -1.8415485897       -0.3916050998
 C         -5.1303085097       -3.0167987495       -0.1128269697
 C         -5.5995480394       -1.6305913193        0.2081637401
 H         -6.3705262093       -1.1894579193       -0.4051858401
 H         -5.6402977095       -1.3284951292        1.2447290900
 H         -5.5842998997       -3.5285774295       -0.9477904097
 H         -4.8611908899       -3.6626988494        0.7091239404
 H         -4.0960664393       -1.5387542099       -1.4216771898
 O         -2.1281004890       -0.0951261303       -1.8122359399
