  62
        -98.93793275
 C         -2.6179996721       -0.9990617951        0.5246032804
 C         -2.8845633536        0.2000983396        1.2369440156
 C         -4.1736399787        0.8494360817        0.9717840889
 C         -5.0228302769        0.2829621829        0.0955893808
 C         -6.3558198212        0.8483242684       -0.2989777262
 C         -6.2344374467        1.7577109438       -1.5293978012
 C         -5.1195027754        2.7977704671       -1.4198616761
 H         -4.1543108738        2.2858156140       -1.4073115470
 H         -5.1489963718        3.4031725633       -2.3284529614
 C         -5.2235945943        3.7128964284       -0.1917110371
 H         -5.0400762923        4.7423881062       -0.5063455140
 H         -6.2349365792        3.6741248801        0.2146137847
 C         -4.2186068694        3.4009056656        0.9188600934
 H         -4.2275342904        4.2328124827        1.6281711181
 H         -3.2124564140        3.3421759770        0.4958850504
 C         -4.4819095799        2.1176215135        1.7169394386
 H         -3.8168124493        2.1237663813        2.5853814018
 H         -5.5136449146        2.1123142264        2.0745516356
 H         -7.1908603662        2.2610517479       -1.6822112297
 H         -6.0352420881        1.1333626299       -2.4034695062
 H         -6.7692696314        1.4062365855        0.5390270931
 H         -7.0234894420        0.0183184464       -0.5362330359
 O         -4.7371211438       -0.8634720657       -0.5680298251
 C         -3.5312395212       -1.5276703389       -0.3884282140
 O         -3.4248811397       -2.5519986971       -1.0905335027
 O         -2.0794530667        0.6977457569        2.0698701680
 C         -1.2894924446       -1.6760315782        0.8161439157
 C         -0.2498736557       -1.3304503464       -0.2243246290
 C         -0.3844504255       -1.7329957496       -1.5487895205
 C          0.5890108667       -1.4142701603       -2.4781597073
 C          1.7121650122       -0.6942022615       -2.1105998000
 C          1.8578098652       -0.2895796354       -0.7907140508
 C          0.8794716244       -0.6128244720        0.1421688757
 H          0.9886382495       -0.2854431435        1.1674679745
 N          2.9868835090        0.4569264515       -0.4111775854
 S          4.4798243410       -0.0127512005       -1.0490678130
 O          4.6211212790        0.5761343071       -2.3572990657
 O          4.6150084476       -1.4504539717       -0.9859834517
 C          5.6035922303        0.7689666289        0.0913807412
 C          6.1331291279        0.0283968714        1.1311787736
 C          6.9915212291        0.6478859910        2.0258494668
 C          7.3013757236        1.9903592865        1.8679131560
 C          6.7615367819        2.7204628162        0.8192895004
 C          5.9035627167        2.1071735325       -0.0796597653
 H          5.4683056198        2.6318588253       -0.9140775849
 H          7.0072436304        3.7632285734        0.6990299989
 H          7.9703777734        2.4698467772        2.5649566833
 H          7.4151589236        0.0823070494        2.8401210881
 H          5.8720578033       -1.0149007224        1.2094923142
 H          3.0376585451        0.5951092519        0.5888315107
 H          2.4794567972       -0.4467997998       -2.8267389046
 H          0.4731931876       -1.7314412848       -3.5039925188
 H         -1.2623807541       -2.2868525004       -1.8438780830
 H         -0.9580420931       -1.2445000968        1.7705233334
 C         -1.3974525504       -3.1787367121        0.9866692630
 C         -0.3247070940       -3.8990143924        1.7449788260
 C         -1.6903447660       -3.7435886904        2.3426706398
 H         -2.3279573592       -4.6120287166        2.4108987355
 H         -1.8138787824       -3.0465021385        3.1587455811
 H         -0.0194540606       -4.8755711304        1.4020117971
 H          0.4795952047       -3.3078107005        2.1562640198
 H         -1.8356626238       -3.6802966122        0.1342432121
