  62
        -98.94429019
 C          2.6633675398        1.0797980089        0.1842417689
 C          2.7383579694        0.2658171386       -0.9722833209
 C          3.5193221590       -0.9693790016       -0.8293148906
 C          4.1200731490       -1.2515101615        0.3409990694
 C          4.9667074087       -2.4610206917        0.6324957296
 C          4.1623059083       -3.7064250813        1.0303264100
 C          3.3890233680       -4.3736351514       -0.1079776897
 H          4.0640151879       -4.5593741518       -0.9438250697
 H          3.0514801377       -5.3444010312        0.2604561606
 C          2.1690806682       -3.5790029311       -0.5953933798
 H          1.3124950580       -4.2495215909       -0.6941035996
 H          1.9016815685       -2.8282349408        0.1522372500
 C          2.3612705883       -2.8858428915       -1.9444439000
 H          1.4546754985       -2.3184159813       -2.1703538401
 H          2.4940397580       -3.6367717618       -2.7262181298
 C          3.5494177186       -1.9161814719       -1.9907620904
 H          4.4880237684       -2.4693355322       -2.0095194303
 H          3.4716590787       -1.3226616721       -2.9047420205
 H          4.8687832481       -4.4339630415        1.4365166802
 H          3.4700925985       -3.4343426909        1.8309031200
 H          5.5886321985       -2.6895362221       -0.2333145804
 H          5.6173768788       -2.1910714517        1.4671213395
 O          4.0351123594       -0.4333026012        1.4250657592
 C          3.2845931798        0.7316982590        1.3822686090
 O          3.2475247401        1.3596358093        2.4614336688
 H          0.3490597396        0.4036194999        1.1465686893
 C         -0.2092970703        0.9819364899        0.4190636092
 C          0.4154445700        2.0482882295       -0.2164249611
 C         -0.3185637798        2.7928571595       -1.1298827412
 C         -1.6317483900        2.4576228999       -1.4129414910
 C         -2.2408727502        1.3815571102       -0.7948649207
 C         -1.5218248604        0.6400032502        0.1337289594
 N         -2.1289283407       -0.4603573894        0.7648950998
 S         -3.6240064105       -0.2275835087        1.4950224599
 O         -3.7930395601        1.1398292014        1.9291539995
 O         -3.7041868108       -1.2430950284        2.5224792301
 C         -4.7919741408       -0.6116019187        0.2077630801
 C         -5.7580190305        0.3099402315       -0.1454423501
 C         -6.6628455607       -0.0177821184       -1.1434156799
 C         -6.5862801812       -1.2544134686       -1.7655969796
 C         -5.6108553914       -2.1693857188       -1.3976751795
 C         -4.7039576112       -1.8484885289       -0.4004402796
 H         -3.9333719714       -2.5311638090       -0.0829960495
 H         -5.5538776918       -3.1298266090       -1.8841791392
 H         -7.2908536613       -1.5072088086       -2.5421085395
 H         -7.4217722105        0.6918958517       -1.4311702700
 H         -5.7756575902        1.2608056117        0.3629006497
 H         -1.5106537408       -0.9621917294        1.3855671398
 H         -3.2601361003        1.1125799705       -1.0191522205
 H         -2.1874012698        3.0411660599       -2.1309725211
 H          0.1388020804        3.6334863993       -1.6250563115
 C          1.8475356002        2.3588130292        0.1501514887
 H          1.8553020104        2.7545437494        1.1770151886
 C          2.5015082304        3.3715785587       -0.7668138517
 C          2.3513754609        4.8388101388       -0.5027891320
 C          3.6650188707        4.1628290885       -0.2524554120
 H          4.4878136307        4.3656534481       -0.9213452521
 H          3.9674536507        3.9896591487        0.7705072780
 H          1.7642347111        5.1359136793        0.3532085080
 H          2.2754626610        5.5097962986       -1.3451055222
 H          2.5406256602        3.0347848084       -1.7962086616
 O          2.1833510294        0.5514807885       -2.0637760509
