  62
        -98.94738757
 C          2.5655432117        0.1287947082       -0.3994109940
 C          2.1725863035        0.7000159815        0.8351481731
 C          1.7352949158        2.1021863061        0.7818540276
 C          1.7161233108        2.7420295987       -0.4013277538
 C          1.2691047251        4.1605719665       -0.6063702345
 C         -0.2239308967        4.2401043619       -0.9497199121
 C         -1.1251989264        3.4599272260        0.0077042685
 H         -2.1581268773        3.6432219831       -0.2989039616
 H         -0.9479199390        2.3884218233       -0.1174451508
 C         -0.9567462716        3.8309924084        1.4876889318
 H         -1.9476565095        3.9182869139        1.9379452815
 H         -0.4718689533        4.8047380109        1.5744115188
 C         -0.1847856105        2.7977197827        2.3109604313
 H         -0.3423862818        3.0180387410        3.3705885201
 H         -0.5919344095        1.8030967399        2.1137519994
 C          1.3303447765        2.7523003388        2.0745975148
 H          1.7468558665        3.7600672964        2.1460864067
 H          1.7715054553        2.1393823259        2.8662618156
 H         -0.3711960015        3.8393207405       -1.9555205511
 H         -0.5191674580        5.2914838038       -0.9537088153
 H          1.4755558026        4.7322594317        0.2965394312
 H          1.8442178989        4.5823308687       -1.4329186663
 O          2.0895228378        2.1558648099       -1.5690121853
 C          2.5041199003        0.8351167442       -1.5988798885
 O          2.7999115421        0.4132333565       -2.7374224660
 H          0.4090132492       -1.0539506103       -0.9823574393
 C          0.5880760373       -1.9045924522       -0.3399654115
 C          1.8868768235       -2.2112987581        0.0433378901
 C          2.0934593097       -3.3203786031        0.8538107152
 C          1.0192583998       -4.0779450495        1.2884150105
 C         -0.2759048115       -3.7402138468        0.9412975333
 C         -0.4911366570       -2.6414713214        0.1171718443
 N         -1.7896819917       -2.2619458256       -0.2751597754
 S         -2.0953469458       -0.5966694788       -0.3030854220
 O         -1.6471528362       -0.0593790204       -1.5645037036
 O         -1.5658368692        0.0189349285        0.8903998681
 C         -3.8779697745       -0.5917337468       -0.2604585177
 C         -4.5337370914       -0.2378445775        0.9029395560
 C         -5.9196694724       -0.2664901917        0.9260819252
 C         -6.6211633862       -0.6494322600       -0.2069754029
 C         -5.9484510498       -1.0004100211       -1.3684348190
 C         -4.5634291948       -0.9718516091       -1.3990737819
 H         -3.9972593218       -1.2261671738       -2.2799858138
 H         -6.4971266834       -1.2946101710       -2.2485101505
 H         -7.6992210495       -0.6720726631       -0.1860736868
 H         -6.4448276728        0.0095986582        1.8261512977
 H         -3.9445517398        0.0572199080        1.7564062126
 H         -2.5058799758       -2.7483127020        0.2486758756
 H         -1.1130704106       -4.3179246731        1.3029149858
 H          1.1928494575       -4.9341357287        1.9225886513
 H          3.0942124412       -3.5847798620        1.1541884828
 C          3.0018238363       -1.3242194169       -0.4573505043
 H          3.1637902381       -1.5497370595       -1.5225718638
 C          4.3069108582       -1.5177896439        0.2870211944
 C          5.2833946790       -2.5648459451       -0.1554217523
 C          5.5848894587       -1.1149991726       -0.3833186667
 H          6.3534888014       -0.6450530517        0.2115076067
 H          5.5125584941       -0.7265908226       -1.3891335902
 H          5.8510778310       -3.0911086511        0.5970934007
 H          5.0183226046       -3.1658087665       -1.0122024362
 H          4.2119671610       -1.3162784002        1.3477955205
 O          2.2037452080        0.0761993210        1.9287117855
