  62
        -98.94102273
 C         -1.7085430820        0.2071058636       -0.9384529015
 C         -2.9190517450        0.9109480778       -0.7258858275
 C         -4.1153281279        0.0818892417       -0.5073989450
 C         -4.0077106340       -1.2583482607       -0.5096106810
 C         -5.1326636242       -2.2130583391       -0.2359340661
 C         -5.2207586886       -2.5550311159        1.2580970625
 C         -5.1966691563       -1.3320919625        2.1751351060
 H         -5.2956072683       -1.6932529423        3.2011340858
 H         -4.2204749387       -0.8475893857        2.0983100784
 C         -6.2972664765       -0.3011831938        1.8882888051
 H         -7.0910750008       -0.7606854929        1.2982010817
 H         -6.7389019763        0.0126991051        2.8365040077
 C         -5.8106990754        0.9659528457        1.1827649037
 H         -6.6127748341        1.7077735714        1.2248536185
 H         -4.9543952487        1.3794106763        1.7215539882
 C         -5.4181974370        0.7995598142       -0.2906410094
 H         -6.2257504776        0.3038671667       -0.8330482458
 H         -5.2838823629        1.7997597030       -0.7127300175
 H         -4.3730025594       -3.1932506590        1.5175667524
 H         -6.1378510138       -3.1218863104        1.4286955354
 H         -6.0679490662       -1.7711342918       -0.5739438895
 H         -4.9500537401       -3.1297737456       -0.7991226791
 O         -2.8306719306       -1.9010117626       -0.7165150172
 C         -1.6628264954       -1.1915932282       -0.9300946099
 O         -0.6573283357       -1.9085230142       -1.1053891146
 H          2.0179353980        0.1253365203       -0.2202769342
 C          1.5406148696        0.8472223542        0.4247542831
 C          0.2839839480        1.3342176912        0.0967807174
 C         -0.3258654444        2.2472615321        0.9503813028
 C          0.3155191515        2.6584636943        2.1041913962
 C          1.5804967487        2.1906129442        2.4148589857
 C          2.1993221757        1.2802481504        1.5667719447
 N          3.4773787461        0.7812463027        1.8531438412
 S          4.5732159072        0.5190533790        0.6155522607
 O          5.8662323040        0.5644847503        1.2643469656
 O          4.3760155566        1.4445863025       -0.4750446658
 C          4.2560953292       -1.1485971449        0.0823788532
 C          4.0556619714       -1.4130100235       -1.2575093456
 C          3.8322512558       -2.7208147206       -1.6574867533
 C          3.8150779682       -3.7362917731       -0.7144154591
 C          4.0220598395       -3.4549159967        0.6275663727
 C          4.2465119873       -2.1495549464        1.0332388756
 H          4.4142607304       -1.8925915585        2.0658656366
 H          4.0066678174       -4.2487173362        1.3570023599
 H          3.6371304424       -4.7526417229       -1.0285365060
 H          3.6676427503       -2.9410117149       -2.7001376926
 H          4.0713868420       -0.5924764107       -1.9581000897
 H          3.9174749793        1.1777709773        2.6705621407
 H          2.0862243500        2.5262068916        3.3077095262
 H         -0.1684588765        3.3636820704        2.7631708643
 H         -1.3042619311        2.6276801522        0.7005382831
 C         -0.3723471906        0.8872597170       -1.1877626847
 H          0.2719675303        0.1160689288       -1.6316191961
 C         -0.4514575362        2.0534621616       -2.1560803583
 C          0.8201014379        2.5762564979       -2.7517532700
 C         -0.1567059974        1.8266230562       -3.6064575062
 H         -0.7269078652        2.3761690383       -4.3404365448
 H          0.0994735953        0.8231470070       -3.9144124579
 H          0.9183145531        3.6412210147       -2.8980098617
 H          1.7440721801        2.0902143726       -2.4727701649
 H         -1.2225578861        2.7697428842       -1.9060204524
 O         -3.0257071254        2.1664097891       -0.7125469603
