  62
        -98.93694580
 C          2.1240679420        1.1645016445        0.1620781573
 C          2.0789287348        0.0917649768       -0.7641592711
 C          2.5923536052       -1.1960526327       -0.2682757194
 C          3.0295100238       -1.3125214470        0.9968632230
 C          3.5390854871       -2.5683059184        1.6514106999
 C          5.0170531851       -2.8698796931        1.3678182057
 C          5.3231196348       -3.3529624582       -0.0503714334
 H          6.3463038262       -3.7337124820       -0.0452630036
 H          4.6656803392       -4.1867255669       -0.2983714607
 C          5.2069192065       -2.2661817930       -1.1281332087
 H          5.2179510153       -1.2817050041       -0.6549654469
 H          6.0746005021       -2.3142319803       -1.7898865859
 C          3.9606322861       -2.3759689444       -2.0068406245
 H          4.0005112947       -3.3005050801       -2.5871380446
 H          3.9586068438       -1.5377436624       -2.7083112257
 C          2.6375236744       -2.3442016683       -1.2308048531
 H          1.8187861666       -2.2089882825       -1.9427378741
 H          2.4846836214       -3.2863684885       -0.7042053523
 H          5.3300521610       -3.6471898726        2.0686225213
 H          5.6026475825       -1.9729610910        1.5817343759
 H          2.9252781657       -3.4145257560        1.3407788478
 H          3.4163083045       -2.4267703817        2.7273977027
 O          3.0390141723       -0.2631213642        1.8626564124
 C          2.5904343548        0.9849280561        1.4670693275
 O          2.6622625382        1.8567307052        2.3580531589
 O          1.6493216530        0.1738923321       -1.9430305365
 C          1.5939983005        2.5608158014       -0.1230221104
 C          0.1964804763        2.7065316440        0.4280016897
 C         -0.2081879252        3.8822422915        1.0492600920
 C         -1.4979224682        4.0117321585        1.5333712763
 C         -2.4013824058        2.9719351447        1.4161203253
 C         -1.9987914159        1.7807921614        0.8191060443
 C         -0.7102322163        1.6616528791        0.3206671940
 H         -0.4123801674        0.7396669887       -0.1553814334
 N         -2.8784023683        0.6895393837        0.7585815054
 S         -2.6350057067       -0.5569323837       -0.3479022509
 O         -1.5359830123       -1.3718730129        0.1049774301
 O         -2.5546328687       -0.0265907502       -1.6902545724
 C         -4.1663514468       -1.4454414622       -0.1351630328
 C         -4.2962607823       -2.2847844993        0.9552962666
 C         -5.4927536054       -2.9576435490        1.1447460039
 C         -6.5342539054       -2.7813530082        0.2455902501
 C         -6.3886566144       -1.9379608964       -0.8454047187
 C         -5.1946355598       -1.2610404942       -1.0397929578
 H         -5.0317040286       -0.6024829429       -1.8776903642
 H         -7.1985428065       -1.8054831243       -1.5444768529
 H         -7.4640981917       -3.3069340310        0.3949729504
 H         -5.6078614181       -3.6166708037        1.9900992203
 H         -3.4555929116       -2.3971240842        1.6202278491
 H         -3.8514637065        0.9483904049        0.8414045677
 H         -3.4061473682        3.0708844980        1.7968577837
 H         -1.8031333065        4.9317279900        2.0082613409
 H          0.4994568306        4.6901040829        1.1640118194
 H          2.2404923694        3.2484683859        0.4479032526
 C          1.6825780854        2.9680393995       -1.5861936123
 C          0.5102735421        2.9347108090       -2.5148821688
 C          1.0640953802        4.2499432884       -2.0611629336
 H          1.6118479110        4.8503471406       -2.7716288444
 H          0.4804229050        4.8194984710       -1.3544820478
 H          0.6858534344        2.6100331702       -3.5290375870
 H         -0.4397305263        2.6044743698       -2.1217820746
 H          2.6417564469        2.7021656920       -2.0183870879
