  62
        -98.94396874
 C         -2.4588545661       -1.1873963645       -0.0558454948
 C         -3.2232993022       -0.4655638345        0.8908593942
 C         -4.0645745691        0.6076789286        0.3498011072
 C         -4.0772482999        0.8416064038       -0.9754767409
 C         -4.8978317051        1.8872236226       -1.6810492293
 C         -4.2563319266        3.2816322638       -1.6921664599
 C         -4.2690905892        4.0148013659       -0.3501412483
 H         -3.9882403845        5.0511715281       -0.5476926030
 H         -5.2836075868        4.0227390525        0.0492585885
 C         -3.3074616481        3.4355586559        0.6971231356
 H         -2.5739087790        2.7940131851        0.2021556979
 H         -2.7510660028        4.2473218421        1.1717065125
 C         -3.9879643804        2.6402624389        1.8115964598
 H         -3.2128045560        2.2489720150        2.4762531510
 H         -4.6274228539        3.3043878520        2.3971291191
 C         -4.8315339368        1.4573302714        1.3178237480
 H         -5.7536461296        1.8173450778        0.8623654800
 H         -5.0849153494        0.8344393891        2.1792003527
 H         -3.2272274285        3.1900299387       -2.0475417187
 H         -4.8052445507        3.8871257795       -2.4168453598
 H         -5.8875185497        1.9443065660       -1.2273173632
 H         -5.0068304453        1.5507551836       -2.7141968608
 O         -3.3325435400        0.1196450591       -1.8544256193
 C         -2.4913974730       -0.8959634722       -1.4198550795
 O         -1.8434209423       -1.4489977791       -2.3274197700
 O         -3.2006936489       -0.7045685966        2.1292266420
 C         -1.5543521845       -2.3037451643        0.4277279789
 C         -0.1112384181       -2.0319811518        0.0767234922
 C          0.7760624256       -3.0397412060       -0.2801424856
 C          2.0987876817       -2.7454211091       -0.5621517298
 C          2.5665323834       -1.4461169239       -0.4976534037
 C          1.6916386872       -0.4311757608       -0.1333201768
 C          0.3707466402       -0.7315145071        0.1598290652
 H         -0.3045661964        0.0643283109        0.4526152266
 N          2.1608679415        0.8971871164       -0.0731333168
 S          3.4004037834        1.2078334311        1.0223510589
 O          3.3261007640        0.3230302744        2.1628081693
 O          3.3131704483        2.6246305078        1.3019858154
 C          4.8874033157        0.8855230785        0.0990816806
 C          5.7746667498       -0.0754099685        0.5428725286
 C          6.9319462384       -0.3052706383       -0.1848596230
 C          7.1794664036        0.4259580262       -1.3366213968
 C          6.2787569807        1.3888724035       -1.7676139479
 C          5.1207985218        1.6250749687       -1.0439104894
 H          4.3976986849        2.3664459612       -1.3407612620
 H          6.4749489639        1.9553742731       -2.6636910207
 H          8.0800698624        0.2449019487       -1.9018381120
 H          7.6336629840       -1.0527575363        0.1487258500
 H          5.5358714088       -0.6220741656        1.4409989462
 H          1.4218847744        1.5736211206        0.0567185015
 H          3.5922873710       -1.2105301071       -0.7294911317
 H          2.7736867302       -3.5395728541       -0.8422421412
 H          0.4297208911       -4.0585062339       -0.3387577396
 H         -1.6405191053       -2.2940294757        1.5256839384
 C         -2.0526376117       -3.6399619100       -0.0854214512
 C         -1.8971066597       -4.8804629710        0.7411830177
 C         -3.2499872551       -4.2606598558        0.5677873841
 H         -3.9752264047       -4.7628805565       -0.0545435474
 H         -3.6841803800       -3.7341059018        1.4053964996
 H         -1.6955400786       -5.8137142705        0.2371894394
 H         -1.4176608873       -4.7843086622        1.7037725690
 H         -1.9695392197       -3.7255110220       -1.1631015115
