  62
        -98.94120576
 C          0.8265874111        1.6475765108       -0.7845749743
 C          2.1119648914        1.7377284375       -0.1953508939
 C          3.0410426766        0.6197976280       -0.4292879613
 C          2.6228242362       -0.4241368850       -1.1651367692
 C          3.3440717471       -1.7174026444       -1.4280390198
 C          2.9723994112       -2.7589160710       -0.3568117816
 C          3.8793914161       -2.7632096994        0.8715049836
 H          3.4606808968       -3.4828823957        1.5790362595
 H          4.8743422084       -3.1149446414        0.5889602752
 C          4.0083394603       -1.4087068893        1.5722754829
 H          3.0239519016       -0.9372306068        1.6240053617
 H          4.3314814811       -1.5903376910        2.5994919816
 C          5.0141772382       -0.4683621466        0.8918090846
 H          5.7152796721       -0.0890987197        1.6384206951
 H          5.6048978483       -1.0370646736        0.1737477477
 C          4.3999960927        0.7571456644        0.2021032533
 H          4.2833850110        1.5629856826        0.9337726400
 H          5.0989693438        1.1237335170       -0.5577607656
 H          1.9450043762       -2.5670071674       -0.0324029914
 H          2.9996053786       -3.7548113183       -0.8049088124
 H          3.0008105625       -2.0748419295       -2.4011070243
 H          4.4183955221       -1.5641336326       -1.4705222221
 O          1.3944862488       -0.4592341245       -1.7437625325
 C          0.4607186837        0.5464394507       -1.5587561303
 O         -0.6200240130        0.3274691032       -2.1409742578
 O          2.4678033754        2.7201864500        0.5131351698
 C         -0.1594155769        2.7465539457       -0.4244276165
 C         -0.9212513236        2.3321446503        0.8141694472
 C         -1.0603439012        3.1818021694        1.9049150219
 C         -1.6997441575        2.7496917885        3.0540070424
 C         -2.1738292399        1.4535177588        3.1535194429
 C         -2.0400383184        0.5983946831        2.0660101584
 C         -1.4583089552        1.0562647130        0.8951240830
 H         -1.3829326562        0.3875178121        0.0538671957
 N         -2.4674163351       -0.7370069233        2.1145905084
 S         -1.5236806867       -1.9031354168        1.3587976707
 O         -1.8364382802       -3.1287111197        2.0693770299
 O         -0.1259146696       -1.5367314292        1.3432332312
 C         -2.1721805580       -2.0435317142       -0.2912547229
 C         -1.3455839274       -2.5385767954       -1.2783918798
 C         -1.8521414721       -2.7086659516       -2.5560704931
 C         -3.1719337055       -2.3834741326       -2.8222823669
 C         -3.9906647523       -1.8895197825       -1.8188086225
 C         -3.4908151086       -1.7198458033       -0.5380797881
 H         -4.0972251512       -1.3294986017        0.2624519230
 H         -5.0157076415       -1.6308111801       -2.0314326384
 H         -3.5616456602       -2.5093613937       -3.8202629015
 H         -1.2101108799       -3.0815094630       -3.3379753018
 H         -0.3177843688       -2.7613952896       -1.0380733262
 H         -2.8001795755       -1.0527599208        3.0141501575
 H         -2.6327396329        1.1025882216        4.0652300957
 H         -1.8032982058        3.4195533904        3.8941045979
 H         -0.6436679960        4.1769164430        1.8586279359
 H          0.4523404358        3.6209060050       -0.1626020797
 C         -1.1102789659        3.1388651251       -1.5365585694
 C         -1.7224446468        4.5065234476       -1.5232564324
 C         -0.6808334877        4.1611572691       -2.5439227282
 H         -0.9831091344        4.0271831930       -3.5713459913
 H          0.3049695864        4.5887887328       -2.4317557625
 H         -2.7455070057        4.6138430941       -1.8487591043
 H         -1.4429695978        5.1747052440       -0.7229817842
 H         -1.7172825652        2.3161133575       -1.8903166151
