  62
        -98.93879506
 C         -1.8746731159       -0.1299128361       -0.1085795113
 C         -2.8897977555       -1.0496119612        0.2372934939
 C         -4.2289827024       -0.4950457335        0.5142783145
 C         -4.4045268796        0.8373628630        0.4357295183
 C         -5.6739277392        1.6216938469        0.6369883883
 C         -6.6315247816        1.5184153627       -0.5611920714
 C         -6.7957101480        0.1131755842       -1.1342378243
 H         -5.8180880808       -0.2667806331       -1.4363220691
 H         -7.4054066019        0.1928027123       -2.0381983433
 C         -7.4682249817       -0.8944250363       -0.2049159774
 H         -7.5994000879       -1.8200805228       -0.7712051548
 H         -8.4611270532       -0.5266837978        0.0635002898
 C         -6.7094157512       -1.2285074395        1.0810525959
 H         -7.1743409998       -2.1209875565        1.5101332100
 H         -6.8205571510       -0.4384032729        1.8187768337
 C         -5.2339230674       -1.5604004837        0.8819878166
 H         -5.1419023996       -2.3386888955        0.1158748031
 H         -4.8529188756       -2.0182165367        1.8029211538
 H         -6.2450677463        2.1590782878       -1.3576931778
 H         -7.6053467311        1.9072222847       -0.2587392478
 H         -5.3800519499        2.6667463711        0.7574828374
 H         -6.1649187456        1.3084036902        1.5535543569
 O         -3.3910220656        1.6886175959        0.1042641564
 C         -2.1122112628        1.2420133086       -0.1741173019
 O         -1.3001525705        2.1433675768       -0.4572438855
 O         -2.6915347890       -2.2926833477        0.3139491667
 C         -0.4824170593       -0.6528040772       -0.4140266230
 C          0.5153897939       -0.0334792516        0.5319300605
 C          0.2864043793       -0.1415484346        1.9023675397
 C          1.1518261044        0.4318608839        2.8119741536
 C          2.2741574051        1.1151465412        2.3758679932
 C          2.5170506104        1.2229749864        1.0128438342
 C          1.6439585856        0.6438963034        0.0998676609
 H          1.8513082437        0.7598736280       -0.9501308657
 N          3.6416570639        1.9217986682        0.5444786326
 S          4.5954889300        1.2681086482       -0.6620104067
 O          5.8316044567        2.0156351944       -0.5909304054
 O          3.9052337824        1.2977912486       -1.9253574429
 C          4.8688386095       -0.4140382645       -0.1374502870
 C          4.1115182472       -1.4327568255       -0.6778276359
 C          4.2878975757       -2.7222580271       -0.2009309409
 C          5.2114893568       -2.9686013838        0.8027988706
 C          5.9688861739       -1.9342833106        1.3318341984
 C          5.7946059048       -0.6430237925        0.8621125211
 H          6.3704154041        0.1866380982        1.2391047796
 H          6.6901279041       -2.1303679961        2.1087549712
 H          5.3430443661       -3.9732480310        1.1725595850
 H          3.7016875204       -3.5281149803       -0.6131592054
 H          3.4061945180       -1.2021397311       -1.4587929360
 H          4.2128293201        2.3245462736        1.2730224610
 H          2.9484037422        1.5721278534        3.0841764887
 H          0.9550057286        0.3460066097        3.8699489823
 H         -0.5918658943       -0.6734866779        2.2419574842
 H         -0.5279118993       -1.7328336316       -0.2093877314
 C         -0.1525222418       -0.4485649774       -1.8769218473
 C          0.7732344975       -1.3938620554       -2.5800974072
 C         -0.6936888171       -1.4151585586       -2.8858274791
 H         -1.0316320338       -1.0320803546       -3.8370263062
 H         -1.2806401313       -2.2423567587       -2.5139835592
 H          1.4502654000       -0.9955590241       -3.3216511843
 H          1.1735091017       -2.2158588066       -2.0058506577
 H         -0.1257777295        0.5982724098       -2.1596489338
