  62
        -98.93605281
 C          2.4884442270        0.1050409555       -0.6064789147
 C          2.2063652645        0.6336829675        0.6767006026
 C          1.8185806106        2.0520271868        0.7114353258
 C          1.7464464207        2.7470238772       -0.4373976168
 C          1.3637625240        4.1948764487       -0.5473684637
 C         -0.1408489509        4.3734879963       -0.7856307823
 C         -1.0224926911        3.5934360869        0.1895881362
 H         -2.0601710119        3.8517607029       -0.0358690496
 H         -0.9152669215        2.5225932087       -0.0001917550
 C         -0.7369766343        3.8700525709        1.6723252187
 H         -0.1925210942        4.8095759793        1.7791507521
 H         -1.6897766897        3.9847024294        2.1931503385
 C          0.0270182387        2.7499330457        2.3819403798
 H         -0.0628039991        2.9034634031        3.4609379938
 H         -0.4359757744        1.7898466770        2.1403639486
 C          1.5231228912        2.6539958203        2.0559673498
 H          1.9873655702        3.6386229311        2.1499996897
 H          1.9827162911        1.9842017979        2.7886538009
 H         -0.3745008999        4.0367849619       -1.7986720183
 H         -0.3737265791        5.4383471350       -0.7177111821
 H          1.6603077662        4.7092859367        0.3649273814
 H          1.9077740253        4.6260880005       -1.3900801094
 O          2.0092342299        2.1989318833       -1.6535738122
 C          2.3686094108        0.8669156586       -1.7666655892
 O          2.5673325893        0.4849550280       -2.9404949345
 H          0.3518651639       -1.2534047888       -1.1649544983
 C          0.5660882301       -1.9732094750       -0.3863413241
 C          1.8904979735       -2.2000354514       -0.0156084865
 C          2.1253539532       -3.1378079404        0.9808645455
 C          1.0702081918       -3.7966748593        1.5923806836
 C         -0.2401315509       -3.5285451743        1.2499282313
 C         -0.4911796404       -2.5980566083        0.2480227436
 N         -1.8060892136       -2.2783579706       -0.1440651614
 S         -2.1022323920       -0.6400149644       -0.4523559610
 O         -1.7614639364       -0.3555963379       -1.8253804843
 O         -1.4662908471        0.1757855545        0.5543892668
 C         -3.8751449970       -0.5891814765       -0.2654838176
 C         -4.4322590590        0.0027632255        0.8515214567
 C         -5.8119087969        0.0067642207        0.9895639895
 C         -6.6049615533       -0.5813619227        0.0160831397
 C         -6.0306442389       -1.1716388267       -1.1003748603
 C         -4.6527595736       -1.1766371098       -1.2460138997
 H         -4.1611694654       -1.6130357791       -2.0998494073
 H         -6.6503312121       -1.6258432648       -1.8565273623
 H         -7.6777967033       -0.5779605317        0.1264796096
 H         -6.2608726509        0.4677850789        1.8544720631
 H         -3.7746022538        0.4500494871        1.5795769113
 H         -2.4968679256       -2.6530072968        0.4933640063
 H         -1.0578795580       -4.0235785238        1.7513556990
 H          1.2789986583       -4.5167573300        2.3693235015
 H          3.1214247236       -3.3536449515        1.3209078298
 C          2.8914334479       -1.3575185979       -0.7714800331
 H          2.7350174267       -1.5776380344       -1.8420392039
 C          4.3914150143       -1.4689843510       -0.5438484665
 C          5.0568540230       -1.6347077196        0.7859066829
 C          5.1418124680       -2.7301845208       -0.2368695560
 H          6.0884293528       -2.8771277856       -0.7360020235
 H          4.5874323882       -3.6420070032       -0.0897639029
 H          5.9433180340       -1.0474248499        0.9782547492
 H          4.4257371302       -1.7478928635        1.6520580891
 H          4.8894228234       -0.7891409195       -1.2331964775
 O          2.2905732320       -0.0325987904        1.7397033666
