  62
        -98.94647762
 C         -2.2930616678       -0.6380049844       -0.0767294062
 C         -1.3893666401       -0.8483226081        0.9878909913
 C         -0.6244512066       -2.1066272109        0.9636114044
 C         -0.7911205189       -2.9486441887       -0.0708385459
 C         -0.0509440637       -4.2316580594       -0.3305933356
 C          1.1842249551       -3.9742426800       -1.2120242025
 C          2.4611033884       -3.6429433619       -0.4422684308
 H          2.7983449995       -4.5295449671        0.0997202367
 H          3.2269216500       -3.3927470507       -1.1802774867
 C          2.3290472093       -2.4746328668        0.5378697880
 H          1.7473519827       -1.6811241912        0.0653518174
 H          3.3280222848       -2.0719282133        0.7206158401
 C          1.7007409140       -2.8771468658        1.8797880276
 H          2.3304798029       -2.5109939633        2.6929782867
 H          1.6964096739       -3.9647328998        1.9552270763
 C          0.2863147947       -2.3381670906        2.1388051011
 H         -0.2236020858       -3.0061174526        2.8415139895
 H          0.3552808250       -1.3619835673        2.6276642849
 H          1.3726946106       -4.8597754757       -1.8229997882
 H          0.9518094372       -3.1482294895       -1.8904248149
 H          0.2273780434       -4.7121512033        0.6030784301
 H         -0.7381728015       -4.8844631325       -0.8729604709
 O         -1.6619250247       -2.7007008430       -1.0881155366
 C         -2.4194007831       -1.5454843975       -1.1262602814
 O         -3.1618274703       -1.4427699009       -2.1256692805
 O         -1.2169835092       -0.0133356725        1.9164907603
 C         -3.0751514436        0.6623322154       -0.1490137781
 C         -2.0995892720        1.8155447095       -0.1489661004
 C         -2.2438814955        2.9570071485        0.6287755315
 C         -1.2735169434        3.9447155646        0.6055206648
 C         -0.1355126123        3.8064730734       -0.1683806524
 C          0.0104195007        2.6738301227       -0.9619816214
 C         -0.9852040608        1.7110262121       -0.9716448726
 H         -0.8668070355        0.8388717064       -1.5976798005
 N          1.1514017781        2.4811836994       -1.7648347071
 S          2.0518466048        1.0783902699       -1.6085128113
 O          3.1263326483        1.2250407996       -2.5667807474
 O          1.2069522156       -0.0765616206       -1.7708278418
 C          2.7357910670        1.1314439484        0.0393820335
 C          1.8984632835        0.9862971104        1.1274153827
 C          2.4435521826        1.0474426539        2.4005405623
 C          3.8047589158        1.2497070657        2.5656168668
 C          4.6314612956        1.3969146178        1.4620599864
 C          4.0933511753        1.3413658449        0.1866263120
 H          4.6955133093        1.4479411282       -0.7011344582
 H          5.6903574239        1.5538077859        1.5905728022
 H          4.2216675434        1.2917806676        3.5595217070
 H          1.7909803423        0.9340216556        3.2516583471
 H          0.8423058149        0.8207971707        0.9838659268
 H          1.7741659596        3.2765812756       -1.7922298149
 H          0.6335980397        4.5639382951       -0.1610483586
 H         -1.3956463588        4.8259461314        1.2166509728
 H         -3.1097425145        3.0689409768        1.2605693327
 H         -3.5995957877        0.6507210417       -1.1159486442
 C         -4.0975981558        0.7337735694        0.9655450517
 C         -5.3705705114        1.5009648449        0.7752533247
 C         -5.3951317295        0.0029753890        0.8029086937
 H         -5.8197198246       -0.4926460567        1.6629215400
 H         -5.5507651309       -0.5264550170       -0.1262173038
 H         -5.7837173099        2.0330588010        1.6188263072
 H         -5.5224218929        1.9910999094       -0.1746150888
 H         -3.6411638239        0.7300675230        1.9485083060
