  62
        -98.93732519
 C         -1.2913584002       -0.9955844089        0.4680265705
 C         -1.4425206201        0.3583221513        0.8543987898
 C         -2.3264748000        1.1766309709        0.0196189894
 C         -2.8803114599        0.6426052005       -1.0833079404
 C         -3.7725018298        1.3576153300       -2.0617688908
 C         -5.2479382498        1.4118342604       -1.6417391209
 C         -5.5623394599        2.3659827009       -0.4888530014
 H         -5.1510258998        3.3507253708       -0.7128491518
 H         -6.6484579898        2.4681749010       -0.4454216415
 C         -5.0554674000        1.8926921415        0.8805133989
 H         -4.8247129801        0.8259917015        0.8337392694
 H         -5.8454664400        2.0180742820        1.6242721887
 C         -3.8260845000        2.6416287117        1.3945686186
 H         -4.0805407099        3.6897428918        1.5663577281
 H         -3.5339794401        2.2034878621        2.3521746688
 C         -2.6129268999        2.5816341512        0.4567261087
 H         -2.7725418398        3.2228650408       -0.4102980016
 H         -1.7380791699        2.9461308314        1.0011479586
 H         -5.5723826899        0.4023015605       -1.3791720005
 H         -5.8225587598        1.7291359600       -2.5150014611
 H         -3.3987855297        2.3693443599       -2.2239823313
 H         -3.7007233898        0.8085092496       -3.0033140705
 O         -2.6666678400       -0.6457482497       -1.4555453798
 C         -1.8760143001       -1.4995115294       -0.6946299093
 O         -1.7851003802       -2.6477863497       -1.1639153687
 H          1.5006957499       -0.3495165191        0.4016183404
 C          1.6145433199       -1.3361592894       -0.0206778591
 C          0.7331140898       -2.3417418191        0.3724821913
 C          0.8946267297       -3.6003515994       -0.1909709581
 C          1.8952679898       -3.8283571699       -1.1221768079
 C          2.7318159599       -2.8122057602       -1.5412132983
 C          2.5782044499       -1.5443981099       -0.9902454690
 N          3.3926360900       -0.4752583801       -1.3901002194
 S          2.7836520901        1.0857129099       -1.4430249302
 O          1.3627178901        1.1091845499       -1.7019843203
 O          3.6195248202        1.7562085794       -2.4185048105
 C          3.1678702201        1.7335282106        0.1699112895
 C          2.1656020100        2.1406137711        1.0261127092
 C          2.5107771500        2.6265892217        2.2780994290
 C          3.8442365200        2.7014050418        2.6478232791
 C          4.8410092900        2.2950341413        1.7726384694
 C          4.5022573100        1.8059135707        0.5221907296
 H          5.2440113701        1.4851337303       -0.1899783302
 H          5.8775032500        2.3554867613        2.0628751494
 H          4.1063666799        3.0781746522        3.6239304789
 H          1.7286374100        2.9313109621        2.9549848288
 H          1.1336247200        2.0569778810        0.7199810692
 H          4.0005014301       -0.6716722806       -2.1715328093
 H          3.4851875299       -2.9896333106       -2.2935837482
 H          2.0031016897       -4.8140560401       -1.5495896274
 H          0.2293746396       -4.4079504992        0.0538406522
 C         -0.3628927803       -1.8763805386        1.2987460010
 H          0.1067475097       -1.1732116783        2.0061595207
 C         -1.1522713304       -2.8440199581        2.1654282314
 C         -1.8182320105       -4.1010449483        1.6977395920
 C         -0.6447475905       -4.1759540579        2.6291952321
 H         -0.8319096006       -4.4580616074        3.6547541722
 H          0.3028485795       -4.5202663682        2.2482119423
 H         -2.7987502505       -4.3204738580        2.0966796120
 H         -1.7125168704       -4.3791465988        0.6622566221
 H         -1.7179487504       -2.2753819477        2.9006577011
 O         -0.8608576101        0.8630305817        1.8530773296
