  62
        -98.93983434
 C         -1.8310273333       -1.0116343238        0.4977787090
 C         -2.3862613182        0.1040058615        1.1763114862
 C         -3.8419271680        0.2713174730        1.0828865587
 C         -4.5613607566       -0.6309028536        0.3915224617
 C         -6.0438284747       -0.5597990203        0.1693145209
 C         -6.3759825668        0.1989522709       -1.1231136724
 C         -5.6535655142        1.5397125656       -1.2553470348
 H         -4.5802677348        1.3595851788       -1.3517287107
 H         -5.9870477308        1.9984557290       -2.1887138923
 C         -5.9000299659        2.5109929969       -0.0923972676
 H         -6.1000401787        3.5036862652       -0.5012329892
 H         -6.7866056613        2.2056169870        0.4645612731
 C         -4.7219639659        2.6568619058        0.8728755130
 H         -4.9161857789        3.5170279562        1.5194091111
 H         -3.8097236354        2.8717593422        0.3099632370
 C         -4.4524590408        1.4521628916        1.7833441880
 H         -3.7231799096        1.7626134492        2.5375898266
 H         -5.3735062116        1.1637877754        2.2943500302
 H         -6.0947027856       -0.4261667265       -1.9735841135
 H         -7.4548961538        0.3598044619       -1.1613032638
 H         -6.4292517660       -1.5777760263        0.0917494823
 H         -6.5098186925       -0.0689624702        1.0215468053
 O         -4.0013840072       -1.6975470607       -0.2286838140
 C         -2.6270863114       -1.9122472837       -0.2120976386
 O         -2.2754053599       -2.9202160475       -0.8501227745
 H          1.5650695845        0.7650110833        0.6568766310
 C          1.3115887860        0.4778286832       -0.3525031096
 C          0.3494357861       -0.4960738664       -0.5774394934
 C          0.0069723954       -0.8127621200       -1.8895931559
 C          0.6180040568       -0.1663119039       -2.9475115922
 C          1.5823113667        0.8004570790       -2.7208509434
 C          1.9250596877        1.1305644806       -1.4148748206
 N          2.8816496476        2.1205033606       -1.1642141128
 S          3.8547635400        2.0816048290        0.1860543401
 O          3.1179829515        2.4808848594        1.3584330164
 O          4.9809717045        2.9198105930       -0.1661281786
 C          4.3995356347        0.3905648674        0.3546601308
 C          4.8827201932       -0.2719161269       -0.7567133574
 C          5.3325517466       -1.5749105051       -0.6177765225
 C          5.3016555990       -2.1887131955        0.6249435056
 C          4.8198363995       -1.5087053244        1.7325545829
 C          4.3608797608       -0.2074794466        1.5976601714
 H          3.9654436576        0.3525840456        2.4303241080
 H          4.7928562127       -1.9870522576        2.6984732750
 H          5.6510021307       -3.2032621590        0.7311100566
 H          5.7049774658       -2.1073106108       -1.4779185480
 H          4.9050602234        0.2312817872       -1.7093476721
 H          3.3511798214        2.4927693876       -1.9754731365
 H          2.0560946820        1.3075918628       -3.5474062095
 H          0.3433581820       -0.4195886798       -3.9603710243
 H         -0.7440233953       -1.5678512198       -2.0656680058
 C         -0.3235389412       -1.1786385445        0.5859181884
 H         -0.0366005330       -0.6285119984        1.4964960311
 C          0.1123751440       -2.6259075396        0.7708182651
 C          0.9310419492       -3.3829687400       -0.2279475914
 C          1.5522116361       -2.9335999102        1.0577771441
 H          1.7845056232       -3.6710872965        1.8106315024
 H          2.2488811539       -2.1095995520        1.0139351756
 H          0.7061408066       -4.4299783251       -0.3609733674
 H          1.2239089642       -2.8821955499       -1.1366516767
 H         -0.6262666120       -3.2030143145        1.3172802858
 O         -1.6915857206        0.9200677687        1.8413122775
