  62
        -98.93575297
 C         -2.3725167494       -0.5721881294        0.9022744906
 C         -3.4590965496       -1.0832107892        0.1490106607
 C         -4.7158481394       -0.3201450589        0.2413432906
 C         -4.7778627591        0.7706397712        1.0244565805
 C         -5.9709385589        1.6718046615        1.1533850605
 C         -5.9075098386        2.8204418714        0.1368052304
 C         -5.6111679687        2.3643926013       -1.2919928096
 H         -5.6216961285        3.2539378412       -1.9256059496
 H         -4.5993170788        1.9541638810       -1.3321630795
 C         -6.6006529489        1.3297345015       -1.8461348495
 H         -7.5149433289        1.3367051918       -1.2517462895
 H         -6.8732960489        1.6168467115       -2.8638706195
 C         -6.0539726293       -0.0973229087       -1.9176919394
 H         -6.7438775195       -0.6957786485       -2.5185485894
 H         -5.0898900993       -0.0943249089       -2.4323638694
 C         -5.8791293695       -0.8138612686       -0.5726033893
 H         -6.8056880395       -0.7521949283        0.0013497106
 H         -5.6724022398       -1.8674546887       -0.7819188593
 H         -5.1198117984        3.5117368013        0.4454413004
 H         -6.8584806384        3.3556845017        0.1605824404
 H         -6.8781652790        1.0896468218        1.0046578905
 H         -5.9786937088        2.0899579916        2.1613237004
 O         -3.7242912690        1.2116169710        1.7595278205
 C         -2.5019517691        0.5663364207        1.7025806006
 O         -1.6172494690        1.0893828005        2.4114991505
 H          1.5055730607       -0.1805677404        1.0220338106
 C          1.1222079807       -0.1964413504        0.0123303406
 C         -0.1548282795       -0.6754451500       -0.2374102893
 C         -0.6326853094       -0.6602025800       -1.5445956293
 C          0.1592769107       -0.1840340203       -2.5731388494
 C          1.4419303608        0.2713995494       -2.3234219094
 C          1.9247275408        0.2696963894       -1.0200359294
 N          3.2111581809        0.7502224891       -0.7293119794
 S          4.0813194307       -0.0058382111        0.5051529406
 O          3.9468693804       -1.4407249410        0.3929374307
 O          3.7000595009        0.5737031791        1.7684535506
 C          5.7381318408        0.5020321885        0.0875619206
 C          6.5623153806       -0.3614046818       -0.6089114694
 C          7.8373458307        0.0608185179       -0.9519605994
 C          8.2622521011        1.3324733778       -0.5978727595
 C          7.4232983213        2.1877274981        0.1014893205
 C          6.1480487312        1.7717444284        0.4490074705
 H          5.4643443413        2.3961827886        1.0003766004
 H          7.7579780915        3.1746159580        0.3776048904
 H          9.2547398911        1.6585601275       -0.8659204195
 H          8.4932093006       -0.6023849823       -1.4925351993
 H          6.1917091304       -1.3432793317       -0.8559050293
 H          3.7754794409        0.8923100689       -1.5559933794
 H          2.0616273109        0.6335225692       -3.1296065094
 H         -0.2219663993       -0.1791061303       -3.5832840494
 H         -1.6243709295       -1.0361844998       -1.7447370593
 C         -0.9902867696       -1.2035821098        0.9004530407
 H         -0.5167046095       -0.8632038998        1.8360538107
 C         -1.0203210700       -2.7258144597        0.9468111108
 C         -0.6121484302       -3.6023904099       -0.1946573491
 C          0.2683157698       -3.4924462801        1.0115950909
 H          0.3356790696       -4.3336770400        1.6851389209
 H          1.1890411100       -2.9335283203        0.9149764408
 H         -1.1732041904       -4.5111862598       -0.3496421691
 H         -0.2837337801       -3.1332600801       -1.1083344592
 H         -1.8333628501       -3.0927965995        1.5654059308
 O         -3.4048045198       -2.1118037892       -0.5714510192
