  62
        -98.93806928
 C         -2.0908851849       -1.0866009452        0.0583240014
 C         -2.8559924177       -0.4506913192        1.0633931827
 C         -3.6254658131        0.7301093084        0.6437340370
 C         -3.5304899700        1.1538546601       -0.6299686512
 C         -4.3055882620        2.2934393775       -1.2281654780
 C         -5.7520470082        1.8480763707       -1.5246218692
 C         -6.8156633051        2.5646491858       -0.6923915393
 H         -6.9545205653        3.5733546950       -1.0869871032
 H         -7.7551504073        2.0250192998       -0.8288357733
 C         -6.5224883650        2.6846002953        0.8062665330
 H         -5.8252127372        3.5057676247        0.9792684670
 H         -7.4596239902        2.9648963393        1.2918021622
 C         -5.9739309112        1.4235685200        1.4862515930
 H         -6.2629770130        0.5306430156        0.9317353980
 H         -6.4299622873        1.3456516857        2.4752289360
 C         -4.4481341788        1.4209490371        1.6964155285
 H         -4.0946525462        2.4486190467        1.8203581279
 H         -4.2240411249        0.8832946155        2.6226607585
 H         -5.9739858808        2.0142205740       -2.5797917315
 H         -5.8194220656        0.7713826785       -1.3554737513
 H         -4.2973177937        3.1418088741       -0.5471805514
 H         -3.7988989777        2.5814839671       -2.1496338441
 O         -2.7577701107        0.5346069812       -1.5604141694
 C         -2.0197463254       -0.5977755470       -1.2460831086
 O         -1.3590660991       -1.0608394169       -2.1941585610
 H          0.0830000466       -0.1764726758        1.2049588193
 C          0.7267713315       -0.8609026867        0.6650358903
 C          0.1905994748       -2.0458429011        0.1751040189
 C          1.0273406385       -2.9133767610       -0.5136875760
 C          2.3575259029       -2.5884815362       -0.7185082336
 C          2.8832569902       -1.4038671381       -0.2375467247
 C          2.0568114146       -0.5316040654        0.4591671075
 N          2.5834233058        0.6708322457        0.9662924858
 S          3.4206095274        1.6679723635       -0.0964553617
 O          3.3062364938        2.9960432372        0.4676603132
 O          2.9622510832        1.5059753594       -1.4567774801
 C          5.1081345136        1.1194958453        0.0538651527
 C          5.8141077204        0.7477674396       -1.0733957496
 C          7.1293955518        0.3324016929       -0.9332853298
 C          7.7118683919        0.2972523807        0.3243635862
 C          6.9894910269        0.6758940101        1.4463203919
 C          5.6749460110        1.0933564763        1.3132198390
 H          5.0800712803        1.3985826701        2.1577169064
 H          7.4455504122        0.6468607075        2.4227377860
 H          8.7349182205       -0.0272642977        0.4307002943
 H          7.6920751814        0.0378300869       -1.8045135419
 H          5.3166032219        0.7851915716       -2.0295811091
 H          1.9119039838        1.2107957667        1.4935264188
 H          3.9161224164       -1.1443132779       -0.4027317395
 H          2.9941022399       -3.2685042498       -1.2636449144
 H          0.6361124719       -3.8390760392       -0.9020529226
 C         -1.2743453531       -2.3147281431        0.4189511823
 H         -1.4207785339       -2.4559455891        1.5003175967
 C         -1.7996258964       -3.5347440843       -0.3074216110
 C         -1.6412468492       -4.8980681912        0.2946987676
 C         -2.9917507353       -4.2508205414        0.2507005890
 H         -3.7294586453       -4.6368550869       -0.4366478657
 H         -3.4101303027       -3.8723687668        1.1720025104
 H         -1.1441666986       -4.9671526086        1.2503087939
 H         -1.4536329126       -5.7333394738       -0.3628613436
 H         -1.7340168197       -3.4364040710       -1.3852599313
 O         -2.8866099728       -0.8472184556        2.2605839952
