  62
        -98.94588478
 C          1.6880777422        1.2978918103        0.4228808964
 C          1.2985009714        0.2121025743       -0.3974193257
 C          1.8922080117       -1.0881643067       -0.0649581970
 C          2.6909566272       -1.2062013929        1.0096313329
 C          3.3477854634       -2.4705982373        1.4931549956
 C          4.6623250915       -2.8077620496        0.7754113615
 C          4.5118000568       -3.3041866965       -0.6632523856
 H          5.4805729618       -3.7074537816       -0.9646996756
 H          3.7945714177       -4.1251244349       -0.6882167506
 C          4.0934326014       -2.2212025156       -1.6674386445
 H          4.2687906123       -1.2347542580       -1.2319944322
 H          4.7177890298       -2.2925024706       -2.5607555752
 C          2.6369138276       -2.3092567634       -2.1231278682
 H          2.4811346806       -3.2391355555       -2.6741584877
 H          2.4400993694       -1.4766538920       -2.8029715603
 C          1.6145295775       -2.2417969146       -0.9807057906
 H          0.6211412239       -2.0932760448       -1.4110383465
 H          1.6099332291       -3.1764382373       -0.4199197594
 H          5.1581499399       -3.5885470663        1.3568180910
 H          5.3044024901       -1.9239145582        0.7915613186
 H          2.6502107254       -3.3033346942        1.3957088478
 H          3.5611496113       -2.3223817625        2.5542164383
 O          2.9855363611       -0.1534181926        1.8190627507
 C          2.4945422289        1.1131721299        1.5474242970
 O          2.8385072399        1.9824948056        2.3752507214
 O          0.4983427218        0.3109519711       -1.3638256225
 C          1.1412772903        2.6975655234        0.1966629676
 C         -0.3436744344        2.6165254401       -0.0628972519
 C         -0.9820652557        3.2127317723       -1.1424702894
 C         -2.3488088602        3.0720722916       -1.3140427309
 C         -3.1002133489        2.3163458056       -0.4332831933
 C         -2.4692635962        1.7159133792        0.6503047351
 C         -1.1110816598        1.8961285575        0.8451776359
 H         -0.6351480995        1.4231351393        1.6928588318
 N         -3.1786890463        0.9053076177        1.5635277395
 S         -2.7780447055       -0.7231640566        1.5893846060
 O         -3.6485487622       -1.3089776356        2.5871903294
 O         -1.3627446273       -0.8801574897        1.8051949278
 C         -3.2541595084       -1.3204948664       -0.0237358775
 C         -2.4503680977       -1.0473973326       -1.1123991607
 C         -2.8717357697       -1.4584898592       -2.3684509946
 C         -4.0781175250       -2.1251358988       -2.5150031816
 C         -4.8738970581       -2.3893645387       -1.4101973981
 C         -4.4623688027       -1.9793528565       -0.1527275140
 H         -5.0449794940       -2.1634824949        0.7355662388
 H         -5.8114863848       -2.9091560485       -1.5246094910
 H         -4.3985802161       -2.4403699349       -3.4955246713
 H         -2.2480536248       -1.2475669145       -3.2224527880
 H         -1.5133831453       -0.5280140372       -0.9787169832
 H         -4.1834106734        0.9913894980        1.4846170848
 H         -4.1613389496        2.1836112244       -0.5825204241
 H         -2.8310496476        3.5402889860       -2.1584972781
 H         -0.4080956300        3.7700961714       -1.8642468903
 H          1.2841961963        3.2169140244        1.1594202105
 C          1.8996350455        3.5013387611       -0.8497503765
 C          3.3301394761        3.1913059959       -1.1732352245
 C          2.2589710425        2.9267157772       -2.1858263339
 H          2.2057464245        3.5696585852       -3.0521438755
 H          1.9735708380        1.9051836630       -2.3790452737
 H          4.0074869473        4.0157539469       -1.3387735504
 H          3.7848659307        2.3484436045       -0.6725106365
 H          1.6352348728        4.5539068676       -0.8241143140
