  62
        -98.94464247
 C         -2.1337580902       -1.1372184394       -0.3576393993
 C         -3.1801695206       -1.2052556487        0.5992124605
 C         -4.4052016004       -0.4686557587        0.2740183196
 C         -4.4886523199        0.2044037505       -0.8876763309
 C         -5.6769598397        0.9882991203       -1.3745685418
 C         -5.7473232597        2.4196745707       -0.8250606928
 C         -6.1331755001        2.5321701017        0.6504228770
 H         -6.3564619701        3.5834280519        0.8431012762
 H         -7.0484504103        1.9671168319        0.8295901271
 C         -5.0420337305        2.0729669023        1.6278479476
 H         -4.0810242303        2.0321002818        1.1093210779
 H         -4.9394411207        2.8074237128        2.4299398571
 C         -5.3081297509        0.7187049528        2.2854604485
 H         -6.1958453810        0.7870740433        2.9181426382
 H         -4.4557195311        0.4764939831        2.9251619289
 C         -5.5015536107       -0.4374827279        1.2955315092
 H         -5.4639390210       -1.3764005875        1.8531987699
 H         -6.4734049405       -0.3577799081        0.8090303489
 H         -4.7813785996        2.9040026804       -0.9869288929
 H         -6.4919554895        2.9589055703       -1.4152694534
 H         -5.5902769593        1.0413840495       -2.4620030618
 H         -6.5950309398        0.4557240905       -1.1247553517
 O         -3.4722466496        0.2312549597       -1.7879661506
 C         -2.2655401498       -0.4098639002       -1.5404873798
 O         -1.4276241495       -0.2581757110       -2.4513795696
 O         -3.0943594010       -1.8584989279        1.6724115009
 C         -0.8389118104       -1.8605416294       -0.0219994584
 C          0.1862097095       -0.8435708592        0.4182750213
 C          0.3559921092       -0.5723075082        1.7724008811
 C          1.2541921191        0.3920545919        2.1924549207
 C          2.0007530895        1.1061749512        1.2722409405
 C          1.8388543199        0.8416631703       -0.0819828994
 C          0.9468509999       -0.1365482599       -0.5016995790
 H          0.8089216202       -0.3149538906       -1.5567312889
 N          2.5821568603        1.5668888896       -1.0246072997
 S          4.1869267202        1.9033573096       -0.7124258794
 O          4.2841621301        3.0406355302        0.1696147898
 O          4.8018761606        2.0607514586       -2.0118003293
 C          4.8282937698        0.4533673401        0.1072462118
 C          4.7388230299       -0.7599837804       -0.5459720374
 C          5.2190769395       -1.8965645600        0.0836936836
 C          5.7778747291       -1.8014294792        1.3492250737
 C          5.8641729991       -0.5755431787        1.9900434128
 C          5.3842251294        0.5645859209        1.3653537319
 H          5.4292383294        1.5372905112        1.8277328412
 H          6.3002480188       -0.5039438181        2.9734072429
 H          6.1484483489       -2.6889647089        1.8373228844
 H          5.1538266796       -2.8512305603       -0.4129789758
 H          4.3028761502       -0.8006388410       -1.5312729975
 H          2.4228298405        1.2905281589       -1.9814574495
 H          2.6883296395        1.8769332213        1.5805600602
 H          1.3720865088        0.5943075427        3.2460550206
 H         -0.2398769911       -1.1140368777        2.4928722413
 H         -1.0810978708       -2.4884424387        0.8456992420
 C         -0.3488492302       -2.7547987802       -1.1421164076
 C          0.6987157196       -3.7839877201       -0.8434778265
 C         -0.7100369504       -4.2087386801       -1.1271235167
 H         -0.9251820501       -4.6947487708       -2.0670817364
 H         -1.3120187707       -4.5665077395       -0.3046833666
 H          1.4532783498       -3.9818227407       -1.5890689862
 H          1.0533832893       -3.8518392394        0.1736928136
 H         -0.3181222398       -2.2666711809       -2.1075604679
