  62
        -98.94002578
 C         -1.7216874200       -1.1100224452        0.3586545556
 C         -2.0157800175       -0.0115557972       -0.4865395860
 C         -3.4187196739        0.1049030866       -0.9197852535
 C         -4.3230924982       -0.7957356797       -0.4968373511
 C         -5.7884546410       -0.7602481799       -0.8186110691
 C         -6.5710750707        0.0240900874        0.2439081597
 C         -5.9647167080        1.3872831319        0.5772398257
 H         -6.6161969107        1.8614555528        1.3144579615
 H         -4.9932971842        1.2394663074        1.0547176360
 C         -5.7963082048        2.3199385614       -0.6302997715
 H         -6.1419743618        3.3180368818       -0.3530542631
 H         -6.4237689467        1.9772818209       -1.4539349919
 C         -4.3548322334        2.4692749688       -1.1208199196
 H         -4.3195109602        3.3054638165       -1.8244651798
 H         -3.7038622886        2.7232206001       -0.2801104552
 C         -3.7623512718        1.2472474093       -1.8338387449
 H         -4.4387862695        0.9187414236       -2.6258417712
 H         -2.8192906207        1.5579424099       -2.2939248109
 H         -6.6012849178       -0.5700168409        1.1601319599
 H         -7.5952867812        0.1562223742       -0.1094276175
 H         -5.9289620719       -0.3065902957       -1.7977605735
 H         -6.1594875857       -1.7861692008       -0.8466481573
 O         -4.0073659563       -1.8256679839        0.3289157658
 C         -2.7117677545       -1.9979015933        0.7885527266
 O         -2.5709111349       -2.9602449464        1.5685876724
 H          1.9266165754       -0.0518542075       -0.0522054762
 C          1.4623953110        0.4521746150        0.7776146704
 C          0.3027234872       -0.0563666844        1.3406669085
 C         -0.3049378991        0.6509747411        2.3749732094
 C          0.2254855931        1.8463809189        2.8183205062
 C          1.3831532861        2.3517122941        2.2537197555
 C          2.0043708735        1.6485628737        1.2278125847
 N          3.2100651194        2.1121847364        0.6940022597
 S          3.8674289970        1.6025115014       -0.7463918471
 O          5.0291511203        2.4522324436       -0.9101153993
 O          2.9244862502        1.6197256997       -1.8390275399
 C          4.4025865524       -0.0649031156       -0.4203277144
 C          4.9626565504       -0.3681377985        0.8046918578
 C          5.3869775109       -1.6656881180        1.0429926431
 C          5.2501962561       -2.6317659512        0.0577857663
 C          4.6934471913       -2.3096722960       -1.1702309160
 C          4.2668692397       -1.0138355012       -1.4140644529
 H          3.8192027026       -0.7193030311       -2.3505089987
 H          4.5879170840       -3.0614557318       -1.9362713822
 H          5.5778177355       -3.6418174993        0.2471259049
 H          5.8203556673       -1.9204940442        1.9967249002
 H          5.0508841287        0.4046418002        1.5498010469
 H          3.4912100089        3.0430186119        0.9589624063
 H          1.7996745478        3.2855552788        2.5990020262
 H         -0.2643623932        2.3914182773        3.6114394263
 H         -1.2108542524        0.2558274587        2.8154082411
 C         -0.3203581249       -1.3551460468        0.8923751130
 H         -0.4643191881       -1.9823453113        1.7881073506
 C          0.5714321961       -2.1489061384       -0.0512281439
 C         -0.0059089699       -3.1689128606       -0.9851257734
 C          0.5877493125       -1.9059724789       -1.5290255805
 H          1.5339876428       -1.9636237646       -2.0464366564
 H         -0.0715276316       -1.1464697465       -1.9192820283
 H          0.5317680858       -4.0939026945       -1.1277093647
 H         -1.0802147970       -3.2811587081       -1.0038821503
 H          1.5214265377       -2.4045604987        0.4092836505
 O         -1.1673200753        0.8362290818       -0.8663358645
