  62
        -98.94054786
 C          1.5948786940        0.6970901746       -0.5571370241
 C          2.9386025476        1.0727992415       -0.8174944558
 C          3.9353237453        0.6693787748        0.1828299560
 C          3.5264302565        0.0378089481        1.2976576744
 C          4.4350236835       -0.4716700831        2.3779087221
 C          4.8555467033       -1.9236989344        2.1101867277
 C          5.3671380140       -2.1667173157        0.6902086333
 H          5.6622120460       -3.2162534111        0.6261492805
 H          4.5453472532       -2.0205653418       -0.0144621974
 C          6.5492738990       -1.2771432350        0.2806600409
 H          7.0188076022       -0.8530235665        1.1689618836
 H          7.2980823755       -1.8970596365       -0.2168221294
 C          6.1891420121       -0.1497265232       -0.6888171381
 H          5.6371465903       -0.5597809352       -1.5384089248
 H          7.1188450235        0.2740678780       -1.0775832545
 C          5.3733487620        1.0058438918       -0.0952644006
 H          5.8637065179        1.3770175621        0.8070802263
 H          5.3545713582        1.8134615063       -0.8329886134
 H          5.6294808900       -2.1968566328        2.8297872648
 H          3.9915486304       -2.5706778604        2.2790435473
 H          5.3139720626        0.1674011107        2.4377025249
 H          3.8987947745       -0.4261851355        3.3274592425
 O          2.2249364632       -0.2508458534        1.5451837382
 C          1.2248700212        0.0570720136        0.6274021423
 O          0.0893274853       -0.2936286793        0.9930418232
 O          3.2885548523        1.7184797935       -1.8413607143
 C          0.5512901252        1.0941952588       -1.5868734086
 C         -0.5752429225        1.8484110271       -0.9288204763
 C         -0.3559731207        3.1700216572       -0.5492210034
 C         -1.3583489156        3.9127746741        0.0431627274
 C         -2.5987211478        3.3454936981        0.2751458846
 C         -2.8249297088        2.0230943917       -0.0839305033
 C         -1.8183116908        1.2818399926       -0.6887985165
 H         -2.0039624933        0.2544671240       -0.9555856204
 N         -4.0852385379        1.4265887039        0.1300564516
 S         -4.1609316191        0.1322485902        1.2061293566
 O         -5.5576743085        0.0833394330        1.5941880598
 O         -3.2187929166        0.2893555966        2.2890129241
 C         -3.8047204541       -1.3082275964        0.2276593698
 C         -2.6539017702       -2.0345043686        0.4551106437
 C         -2.4390292498       -3.1853605885       -0.2886082230
 C         -3.3650521512       -3.5796052451       -1.2419699219
 C         -4.5109615979       -2.8299560138       -1.4638638702
 C         -4.7383559951       -1.6848722061       -0.7187281131
 H         -5.6225898631       -1.0823228647       -0.8433454868
 H         -5.2260590189       -3.1374571181       -2.2097735576
 H         -3.1899943744       -4.4761218366       -1.8161282410
 H         -1.5446073777       -3.7644960809       -0.1212002894
 H         -1.9408622141       -1.6759128942        1.1806024273
 H         -4.7998372009        2.0948900924        0.3872263782
 H         -3.3874920339        3.9198641259        0.7385657732
 H         -1.1749812379        4.9380938295        0.3275356478
 H          0.6162485461        3.6091854596       -0.7275097899
 H          1.0838909709        1.8026851688       -2.2430082844
 C          0.0709470139       -0.0370491852       -2.4827240398
 C          1.0444248625       -1.0552260482       -2.9960913376
 C         -0.0288038529       -1.4616935438       -2.0335890540
 H         -0.8535245343       -2.0524973399       -2.4040676715
 H          0.2472824898       -1.6908028048       -1.0170162796
 H          0.9659787009       -1.3740847395       -4.0243085882
 H          2.0602147200       -0.9944451718       -2.6329162477
 H         -0.6854734840        0.3035422536       -3.1832701726
