  62
        -98.93458974
 C          2.4142352001        1.1097749402        0.0097287298
 C          2.4905260601       -0.2991492997        0.0915343102
 C          3.8243536501       -0.8698853097        0.3602154103
 C          4.8780970001       -0.0463491096        0.5157651900
 C          6.3297793301       -0.3311837096        0.8419664500
 C          6.8889461501       -1.7481792096        0.7482380304
 C          6.9716459400       -2.3082934700       -0.6713805495
 H          7.7494662200       -1.7651123102       -1.2138494997
 H          7.2781013200       -3.3546645400       -0.6095149892
 C          5.6882841400       -2.2141327302       -1.4927213094
 H          5.4205763400       -1.1655326503       -1.6379319797
 H          5.8923188299       -2.6334551305       -2.4817234393
 C          4.4854715800       -2.9567263001       -0.9141635291
 H          3.6922090500       -2.9361453203       -1.6666063191
 H          4.7486891500       -4.0011616500       -0.7356670589
 C          3.9046717901       -2.3692027697        0.3836185207
 H          2.8758190401       -2.7274990896        0.4857972209
 H          4.4573798201       -2.7123231694        1.2548925308
 H          6.3260541302       -2.4181948894        1.3912507006
 H          7.9064888601       -1.7078660795        1.1462497103
 H          6.9149605701        0.3282299602        0.1932281298
 H          6.4789229202        0.0327924307        1.8644949799
 O          4.7488306201        1.3115389003        0.4385296796
 C          3.5348843601        1.9198174003        0.1787012095
 O          3.5820427201        3.1656843603        0.1302413091
 H         -1.5477361399        1.0380768401       -0.6404885600
 C         -1.2433680499        1.0428574904        0.3921319300
 C          0.0525015202        1.3863838105        0.7446961299
 C          0.3978888102        1.3914236109        2.0937046498
 C         -0.5222824297        1.0321825611        3.0587994700
 C         -1.8074555897        0.6652876110        2.7008536002
 C         -2.1705348898        0.6789420807        1.3593917102
 N         -3.4902579498        0.3708425706        0.9851261903
 S         -3.8187131999       -0.3900934799       -0.4839936394
 O         -3.0905472200       -1.6348173199       -0.5899187991
 O         -3.6337459100        0.5554106198       -1.5553611297
 C         -5.5601745299       -0.7100083398       -0.2660102192
 C         -6.4475451699        0.3355595002       -0.4390622695
 C         -7.7998541799        0.1062993103       -0.2423983293
 C         -8.2407144399       -1.1577384096        0.1209798911
 C         -7.3390786299       -2.1979701596        0.2875487013
 C         -5.9846028299       -1.9746918797        0.0943439712
 H         -5.2480822199       -2.7544291296        0.2052700313
 H         -7.6849432999       -3.1803325095        0.5663484716
 H         -9.2939101499       -1.3338885396        0.2727826612
 H         -8.5042396399        0.9118070202       -0.3735656695
 H         -6.0597748299        1.2975535501       -0.7306504898
 H         -4.0080095198       -0.0700274492        1.7336792905
 H         -2.5241134997        0.3759202813        3.4544639403
 H         -0.2354096697        1.0305687314        4.0997987400
 H          1.4050159202        1.6711450509        2.3732407897
 C          1.0871179101        1.7848061102       -0.2799939603
 H          1.2676424401        2.8658762802       -0.1791234206
 C          0.6593376800        1.4958924297       -1.7042443402
 C         -0.1532694400        2.4955472795       -2.4688523405
 C          1.2845095300        2.2688829194       -2.8249110405
 H          1.5157966399        1.7504097992       -3.7433233503
 H          2.0037924600        3.0298811495       -2.5581186607
 H         -0.9189188301        2.1308164293       -3.1375048503
 H         -0.4110589100        3.4162858997       -1.9674271307
 H          0.4603139500        0.4426318397       -1.8730466899
 O          1.4908249701       -1.0537642298       -0.0429332795
