  62
        -98.93732217
 C         -1.7686751173       -1.4935048632        0.3603090967
 C         -1.8085477097       -0.2519941153        1.0437813391
 C         -2.8850549044        0.6862947911        0.6784240195
 C         -3.7616458299        0.3189130400       -0.2742642094
 C         -4.9148593067        1.1196489573       -0.8148840613
 C         -4.4656494577        2.1961962577       -1.8216361191
 C         -3.1466920158        2.8872041132       -1.4805728435
 H         -2.3813703170        2.1239951200       -1.3250453432
 H         -2.8439603971        3.4780920572       -2.3494052383
 C         -3.1920675824        3.8228427725       -0.2744996438
 H         -3.8619839367        4.6559956627       -0.5008067930
 H         -2.1886932827        4.2337221948       -0.1385909847
 C         -3.6480491156        3.1972029539        1.0433434817
 H         -4.7139928665        2.9877032421        1.0110334757
 H         -3.5037324097        3.9474867040        1.8266320703
 C         -2.8737721763        1.9586282387        1.4894605643
 H         -1.8156888852        2.2154066948        1.6057126142
 H         -3.2196671708        1.6837336816        2.4937598840
 H         -4.3405505273        1.7132355303       -2.7936015595
 H         -5.2578214639        2.9403932467       -1.9152895192
 H         -5.5765631655        0.4183303584       -1.3274317985
 H         -5.4712319472        1.5579594120        0.0088399839
 O         -3.6639006805       -0.8671436111       -0.9337718910
 C         -2.6704287270       -1.7921914992       -0.6606344766
 O         -2.7184737363       -2.8027904370       -1.3885617957
 O         -0.9734955142        0.0607748127        1.9347185050
 C         -0.6589455791       -2.4485554555        0.7673136218
 C          0.5497207692       -2.2107796205       -0.1046085688
 C          0.5295868687       -2.4962327948       -1.4657476439
 C          1.6340622154       -2.2268201503       -2.2538891215
 C          2.7778871749       -1.6722192140       -1.7048029711
 C          2.8041211672       -1.3780619606       -0.3483723488
 C          1.6947943328       -1.6497105645        0.4418882843
 H          1.7130294152       -1.4013754271        1.4944341050
 N          3.9658708957       -0.8078681131        0.2161414044
 S          4.3829303696        0.7354298425       -0.2808973367
 O          4.5614416603        0.7323974840       -1.7097314861
 O          5.5341249447        1.0999733395        0.5119198026
 C          2.9955622371        1.7650197951        0.1637159003
 C          1.8630368224        1.7423001197       -0.6256470237
 C          0.7749001243        2.5145649279       -0.2531575281
 C          0.8369194501        3.2894850811        0.8941202778
 C          1.9786939819        3.2960421504        1.6796506713
 C          3.0687244160        2.5231709740        1.3151420353
 H          3.9788313511        2.5013527397        1.8929842146
 H          2.0199281684        3.8976124444        2.5734617545
 H         -0.0112774615        3.8923922328        1.1791831813
 H         -0.1183836914        2.5050452614       -0.8575539012
 H          1.8489064859        1.1319444095       -1.5146543971
 H          3.9683225171       -0.8352130668        1.2266817479
 H          3.6391197402       -1.4422519985       -2.3105733800
 H          1.6054538324       -2.4512441482       -3.3096411153
 H         -0.3665221387       -2.9115158456       -1.9016244377
 H         -0.3902926416       -2.1564256992        1.7916045156
 C         -1.0621662937       -3.9080750302        0.7791650377
 C         -0.2578962214       -4.8714747995        1.5978543326
 C         -1.6435920463       -4.4962024025        2.0281633131
 H         -2.4320528969       -5.2274059059        1.9328428155
 H         -1.7534437270       -3.8466329954        2.8844690298
 H         -0.0908037795       -5.8635207223        1.2076585925
 H          0.5725296744       -4.4767779368        2.1637863644
 H         -1.4605875911       -4.2587472064       -0.1630253939
