  62
        -98.94203865
 C          1.4648563086        1.1431674934        0.6468748183
 C          2.4138594455        0.9447329830       -0.3850762515
 C          2.9564549386       -0.4218931114       -0.4971268880
 C          2.5018526352       -1.3947984732        0.3103234386
 C          2.9897210066       -2.8139300953        0.3120858572
 C          4.1535421533       -3.0060829689        1.2944845992
 C          5.2626394302       -1.9644755824        1.1472921026
 H          4.8691713222       -0.9847708832        1.4272823171
 H          6.0439922907       -2.2167235951        1.8673046145
 C          5.8710393559       -1.8806704322       -0.2593618581
 H          6.9582598417       -1.8322204590       -0.1689884645
 H          5.6320507329       -2.7844473545       -0.8210760826
 C          5.4362849840       -0.6552968362       -1.0654299409
 H          6.0822696486       -0.5798161563       -1.9442012450
 H          5.5880478524        0.2481487970       -0.4694838640
 C          3.9860218131       -0.6631369770       -1.5656195323
 H          3.8749253414        0.1601761194       -2.2778113324
 H          3.7796606680       -1.5979126114       -2.0918862633
 H          3.7603335894       -2.9473251155        2.3119784459
 H          4.5674901472       -4.0051950183        1.1468346974
 H          2.1595399527       -3.4579111026        0.6081386290
 H          3.2987788566       -3.0848811131       -0.6957913115
 O          1.5632987883       -1.1775177916        1.2650713209
 C          1.0203474227        0.0800710696        1.4392031645
 O          0.1530739360        0.1415905121        2.3358512096
 H         -0.3060513347        1.0810363022       -1.1611320104
 C         -1.0736240334        1.5314352907       -0.5490623035
 C         -0.7244080711        2.2796148533        0.5654458919
 C         -1.7378668404        2.8349083867        1.3377052056
 C         -3.0664211211        2.6433187344        1.0013409824
 C         -3.4100070703        1.8600034120       -0.0861257984
 C         -2.4032988742        1.2902602139       -0.8554874717
 N         -2.6904119731        0.4174923724       -1.9288154982
 S         -2.2473782731       -1.1813685660       -1.6620042980
 O         -0.8306336088       -1.2661596519       -1.4220655984
 O         -2.7525037606       -1.9100117930       -2.8058335665
 C         -3.1734905913       -1.6409851613       -0.2076783555
 C         -4.4045095262       -2.2465953860       -0.3766718056
 C         -5.1719021628       -2.5336245283        0.7400971235
 C         -4.7028312624       -2.1996521374        2.0020529992
 C         -3.4673938635       -1.5898638327        2.1540808496
 C         -2.6906834796       -1.3041868496        1.0411119639
 H         -1.7246760175       -0.8335287276        1.1413768142
 H         -3.0926297125       -1.3261837180        3.1301432914
 H         -5.3010447884       -2.4170712064        2.8727849938
 H         -6.1312167558       -3.0115188096        0.6236000900
 H         -4.7252969235       -2.4897691093       -1.3769196429
 H         -3.6583255230        0.4423184854       -2.2223101759
 H         -4.4457480871        1.6784554770       -0.3308251185
 H         -3.8427995252        3.0843788363        1.6071809188
 H         -1.4796410680        3.4011916497        2.2203647321
 C          0.7311578691        2.4496933424        0.9270355109
 H          0.7746905575        2.5998098242        2.0197505687
 C          1.3480407141        3.6777544549        0.2782339269
 C          0.8444818004        4.2476111254       -1.0100818464
 C          0.6192114393        4.9888504331        0.2717577329
 H          1.1875120516        5.8884637611        0.4528466246
 H         -0.3863755702        5.0127496588        0.6622329836
 H          1.5744596394        4.6183022404       -1.7129848619
 H         -0.0014541923        3.7666903725       -1.4780153815
 H          2.4198090812        3.7213332512        0.4328291910
 O          2.8107846456        1.8332206156       -1.1824792586
