  62
        -98.93593260
 C          2.5881047247        0.1792084251       -0.1446657636
 C          2.2817691647        1.2632327245       -1.0046371571
 C          1.6036814216        2.4145492234       -0.3967370406
 C          1.3469376550        2.4021397490        0.9230863656
 C          0.5736995387        3.4493120298        1.6737078737
 C         -0.9374420200        3.1980014231        1.4918106069
 C         -1.6730883273        4.2624467282        0.6742773263
 H         -2.6406353996        3.8410349552        0.3925738879
 H         -1.8612438297        5.1292594832        1.3121738425
 C         -0.9655957193        4.7652610051       -0.5875044596
 H         -1.7102192829        5.3136001354       -1.1685890334
 H         -0.1933411621        5.4851142980       -0.3115284034
 C         -0.3360860207        3.6927778033       -1.4861945683
 H         -0.8175264466        2.7238374639       -1.3343505622
 H         -0.5125441690        3.9717137698       -2.5274077627
 C          1.1865773223        3.5313662709       -1.3107738777
 H          1.6238443902        4.4751026181       -0.9736607614
 H          1.6298566990        3.2871170845       -2.2805374823
 H         -1.0649348468        2.2173311130        1.0261657832
 H         -1.4126123323        3.1367306467        2.4725878564
 H          0.8455272696        3.3613415459        2.7260318437
 H          0.8478077829        4.4407313505        1.3203620938
 O          1.7015944186        1.3693058378        1.7277324340
 C          2.2423440307        0.2017865749        1.2083122648
 O          2.3830747949       -0.7026063057        2.0527631100
 O          2.5471065643        1.2567010375       -2.2389359083
 C          3.0747414362       -1.1084802900       -0.7928613779
 C          2.0819150706       -2.1878379630       -0.4389002842
 C          2.4002706157       -3.3924340015        0.1709288362
 C          1.3951461945       -4.2744759637        0.5329680075
 C          0.0640122702       -3.9652733625        0.3227507967
 C         -0.2622405796       -2.7647807793       -0.2994951000
 C          0.7462230709       -1.9100646307       -0.7039413211
 H          0.4828524442       -0.9804627288       -1.1894062676
 N         -1.5994293677       -2.3901419330       -0.5316002372
 S         -1.9552001517       -0.7431985940       -0.3629113322
 O         -1.7001556112       -0.0831194218       -1.6199931333
 O         -1.2884530834       -0.1964538044        0.7958919109
 C         -3.7158450394       -0.8159641342       -0.0885776003
 C         -4.2178933206       -0.6157169746        1.1828662525
 C         -5.5872918002       -0.6984087482        1.3834163373
 C         -6.4251855025       -0.9827016493        0.3158132077
 C         -5.9061180684       -1.1811047753       -0.9553292269
 C         -4.5387140766       -1.0971023659       -1.1633346727
 H         -4.0899607407       -1.2320265924       -2.1335580296
 H         -6.5608299413       -1.3991089483       -1.7834673774
 H         -7.4899427813       -1.0469645942        0.4748535923
 H         -5.9929304877       -0.5407436027        2.3696945235
 H         -3.5265859863       -0.3924033837        1.9799215502
 H         -2.2575781544       -2.9604880636       -0.0173441771
 H         -0.7162918728       -4.6390622855        0.6427819948
 H          1.6528603508       -5.2059224838        1.0141070734
 H          3.4287864448       -3.6265300642        0.3920767827
 H          2.9832574958       -0.9097932875       -1.8748909361
 C          4.5265922957       -1.4826364155       -0.5511382085
 C          5.5452928169       -0.4322217636       -0.2258248464
 C          5.1684716152       -1.4543139650        0.8021817955
 H          5.8865604021       -2.2261153310        1.0388155915
 H          4.5598761182       -1.1482858170        1.6373413049
 H          6.5183480188       -0.4965306856       -0.6892922779
 H          5.1880021973        0.5789328279       -0.0923568805
 H          4.8520915837       -2.2716425472       -1.2228854705
