  62
        -98.93736653
 C         -2.2845722200       -0.4826759338       -0.2819700292
 C         -3.5278798129       -0.9401751088       -0.7893756363
 C         -4.7117546032       -0.6496676389        0.0293721600
 C         -4.5537055542       -0.0280339656        1.2117640647
 C         -5.6747708371        0.3834874692        2.1205659792
 C         -6.1459704572        1.8107049140        1.8077083220
 C         -6.4141525323        2.0620298309        0.3237324576
 H         -6.7691069922        3.0903727769        0.2270849070
 H         -5.4716701451        1.9962003974       -0.2250679447
 C         -7.4363730641        1.1067355375       -0.3080823691
 H         -8.0240888908        0.6237496228        0.4733124038
 H         -8.1274542109        1.6893477209       -0.9208109127
 C         -6.8281809051        0.0375671061       -1.2177274867
 H         -6.1649343098        0.5105505919       -1.9466814571
 H         -7.6401510485       -0.4368024560       -1.7751895363
 C         -6.0486020199       -1.0766802305       -0.5081270953
 H         -5.8388818634       -1.8575157521       -1.2450669481
 H         -6.6628405074       -1.5080005550        0.2847396425
 H         -5.3747519703        2.5100610327        2.1389036617
 H         -7.0530882927        2.0083296168        2.3816479643
 H         -6.5010213705       -0.3159178494        2.0089616960
 H         -5.3142446184        0.3463723418        3.1498143278
 O         -3.3407964260        0.3381961297        1.6963905812
 C         -2.1752453856        0.1302447284        0.9672190157
 O         -1.1464891203        0.5245625568        1.5461111174
 O         -3.6404792260       -1.5673167369       -1.8765921364
 C         -1.0494863168       -0.7386942681       -1.1257155884
 C          0.0690060293       -1.2985604345       -0.2847584786
 C         -0.1073840571       -2.5400902378        0.3218806158
 C          0.8917238117       -3.0975648990        1.0949769901
 C          2.0974525432       -2.4392341627        1.2631241471
 C          2.2805827180       -1.1972189796        0.6684228655
 C          1.2689485867       -0.6332794599       -0.0966489140
 H          1.4329874702        0.3404799673       -0.5270946819
 N          3.4817494776       -0.4908217432        0.8378969454
 S          4.0582556466        0.4299027778       -0.4523649630
 O          3.4614651510        1.7408866732       -0.4067737338
 O          3.8986403457       -0.3002114559       -1.6905123838
 C          5.7860663194        0.5416874730       -0.0224807466
 C          6.1879650276        1.5134124842        0.8745320038
 C          7.5245580518        1.5808708104        1.2344822226
 C          8.4317917859        0.6805148067        0.6957069365
 C          8.0140605821       -0.2881068992       -0.2045775475
 C          6.6785697443       -0.3618722217       -0.5680510601
 H          6.3097774074       -1.0915320426       -1.2709210038
 H          8.7222149742       -0.9843088167       -0.6242020876
 H          9.4715033855        0.7363104044        0.9770709726
 H          7.8533087802        2.3343882414        1.9318945188
 H          5.4483329679        2.1958866614        1.2599689957
 H          4.2112748512       -1.0443285428        1.2653163901
 H          2.8829641390       -2.8768848668        1.8604431103
 H          0.7368599376       -4.0585700664        1.5622877856
 H         -1.0465749233       -3.0587857230        0.1824668788
 H         -1.3613106134       -1.5254333164       -1.8343206449
 C         -0.6168088612        0.4519572744       -1.9681025799
 C         -1.6179298498        1.4361784950       -2.4921191362
 C         -0.6330455234        1.8552321288       -1.4441707727
 H          0.1776352177        2.5126633677       -1.7246501919
 H         -0.9829415856        2.0084306420       -0.4350971409
 H         -1.4940691100        1.8099215463       -3.4973128311
 H         -2.6489138606        1.3027758240       -2.1979358195
 H          0.2022772363        0.1967952166       -2.6354761678
