  62
        -98.93915470
 C         -2.6844445343       -0.2614344641       -0.2885230347
 C         -2.2331783003       -1.0284365729        0.8144812151
 C         -1.7300267859       -2.3757185782        0.4952714141
 C         -1.7068042623       -2.7942568505       -0.7816645617
 C         -1.2013796991       -4.1306258008       -1.2428380343
 C          0.2855607095       -4.0796158582       -1.6162543124
 C          1.1739473441       -3.4310697979       -0.5539466127
 H          2.2059807666       -3.5085464487       -0.9052775146
 H          0.9438243479       -2.3645627906       -0.4919678832
 C          1.0628743392       -4.0588364467        0.8421757651
 H          2.0683214551       -4.1671149101        1.2546719077
 H          0.6315657410       -5.0585459196        0.7670084334
 C          0.2597233166       -3.2320768398        1.8485693234
 H          0.6176541783       -2.1988255849        1.8401482367
 H          0.4498003233       -3.6350264827        2.8477468076
 C         -1.2609141836       -3.2235681986        1.6440656348
 H         -1.6239327800       -4.2488993243        1.5387046260
 H         -1.7128196391       -2.7881958620        2.5405464286
 H          0.6264650074       -5.0999356361       -1.8044261856
 H          0.3915788009       -3.5066794699       -2.5402782762
 H         -1.3627133195       -4.8626327516       -0.4534225314
 H         -1.7762767869       -4.4256268237       -2.1227892026
 O         -2.1369274684       -2.0269358806       -1.8162655271
 C         -2.6063228268       -0.7450605882       -1.5969691244
 O         -2.9497005032       -0.1415084199       -2.6348182719
 H         -0.6685659545        0.9822600838        0.8049337665
 C         -0.7974111416        1.8520839646        0.1769759896
 C         -2.0354643040        2.1214385906       -0.3907859939
 C         -2.1661739738        3.2587157535       -1.1776750300
 C         -1.0851632342        4.0969393963       -1.3953560959
 C          0.1563919256        3.7979944853       -0.8633574828
 C          0.2963183785        2.6603308747       -0.0790534718
 N          1.5848405244        2.2770634727        0.3917644175
 S          1.8988174789        0.6263214825        0.3822881582
 O          1.2617637605        0.0527956363       -0.7765264741
 O          1.6116889056        0.0301627716        1.6707674613
 C          3.6644767551        0.6510092420        0.1353937607
 C          4.1379256128        1.0689158534       -1.0934884424
 C          5.5062472210        1.1223077142       -1.3028179251
 C          6.3751947316        0.7594565154       -0.2839836936
 C          5.8856840850        0.3404113047        0.9433056758
 C          4.5170009812        0.2858439084        1.1583193396
 H          4.0903849944       -0.0378672368        2.0941109017
 H          6.5627560594        0.0566057892        1.7328746077
 H          7.4401936826        0.8024109565       -0.4488959524
 H          5.8900671447        1.4459979112       -2.2568956977
 H          3.4232240933        1.3339807886       -1.8555155001
 H          1.8506203600        2.6964820210        1.2711578303
 H          1.0129882432        4.4233267517       -1.0554955789
 H         -1.2062217084        4.9774119607       -2.0076838454
 H         -3.1189003678        3.4725872739       -1.6400385338
 C         -3.1855323888        1.1704380823       -0.1721313943
 H         -3.8869150211        1.3068901822       -1.0116783720
 C         -3.9517014605        1.4524595906        1.1118583316
 C         -3.3851337850        2.2536348430        2.2413472950
 C         -4.4730031576        2.8315483607        1.3901148751
 H         -5.4614223992        2.9316884815        1.8117871754
 H         -4.2022526025        3.6167737027        0.7009949321
 H         -2.3851317132        2.6444667158        2.1318485585
 H         -3.6155611277        1.9340577724        3.2459516423
 H         -4.5948341205        0.6233965254        1.3871135628
 O         -2.2554993820       -0.6382321653        2.0109737165
