  62
        -98.94143948
 C          1.6698529796        1.3366351547        0.2976512556
 C          1.3330468565        0.2676564851       -0.5641520452
 C          2.0127571240       -1.0148901501       -0.3178200697
 C          2.8712070250       -1.1112015683        0.7116012535
 C          3.6924162443       -2.3033519766        1.1203602293
 C          5.0738623709       -2.2815580264        0.4432956894
 C          5.1316996944       -2.9549391738       -0.9269850668
 H          6.1263823185       -2.7687428684       -1.3383215201
 H          5.0251233225       -4.0342480121       -0.8004160103
 C          4.0846500730       -2.4732804769       -1.9337567970
 H          4.0029355222       -1.3859965143       -1.8849650370
 H          4.4390562893       -2.7284840819       -2.9341193152
 C          2.7020884147       -3.1074516838       -1.7183300902
 H          2.3469334727       -3.5329876035       -2.6592503054
 H          2.7909498148       -3.9377788480       -1.0183597132
 C          1.6158562770       -2.1379271449       -1.2362107086
 H          1.1626490851       -1.6430730053       -2.1014871353
 H          0.8126100211       -2.6994842953       -0.7445717917
 H          5.3866852602       -1.2380070051        0.3549922126
 H          5.7902631230       -2.7831160263        1.0970854758
 H          3.8316731558       -2.2243708293        2.2009288019
 H          3.1602847816       -3.2260038175        0.9079062659
 O          3.1535079705       -0.0591438481        1.5321694750
 C          2.5502880576        1.1728139576        1.3636019722
 O          2.8695252636        2.0284372518        2.2168892171
 O          0.5027759331        0.3799405800       -1.5041744748
 C          0.9765081378        2.6793117226        0.1374917576
 C         -0.5155519077        2.4548906263        0.1668444497
 C         -1.4002640108        3.0046233668       -0.7516185660
 C         -2.7444254732        2.6734811422       -0.7204649365
 C         -3.2294689076        1.7730530456        0.2107126503
 C         -2.3566374197        1.2419478950        1.1501935521
 C         -1.0223763173        1.6053125148        1.1432889468
 H         -0.3486454730        1.1708263131        1.8728037619
 N         -2.8398358180        0.2446199742        2.0504938720
 S         -2.4316904140       -1.2931856779        1.4713198610
 O         -3.0388204819       -2.2314287827        2.3931924692
 O         -0.9995462934       -1.4364129460        1.3100309949
 C         -3.2664907665       -1.3376785707       -0.0953562820
 C         -2.5960422215       -0.9504580932       -1.2386158047
 C         -3.2879463869       -0.9411565309       -2.4403815756
 C         -4.6231965477       -1.3120225900       -2.4768754378
 C         -5.2799512790       -1.6975519930       -1.3174461940
 C         -4.5974719694       -1.7081958504       -0.1121404901
 H         -5.0610473569       -1.9998619745        0.8159483817
 H         -6.3185217707       -1.9851011073       -1.3487983555
 H         -5.1547882244       -1.2991404395       -3.4153912225
 H         -2.7744945622       -0.6356995937       -3.3378255347
 H         -1.5585058014       -0.6564367098       -1.1807194097
 H         -2.4408206655        0.3347980285        2.9765464373
 H         -4.2645304070        1.4731897011        0.2188349607
 H         -3.4165938981        3.1016118440       -1.4476511050
 H         -1.0313166710        3.6782367969       -1.5076848471
 H          1.2626500576        3.2796946544        1.0135868638
 C          1.4577658937        3.3773295379       -1.1173065883
 C          1.4638914301        4.8738692787       -1.1952270239
 C          2.7558478546        4.1241152541       -1.0770183592
 H          3.4063477145        4.0740424429       -1.9371992843
 H          3.2822934796        4.1498047169       -0.1337146644
 H          1.2314019890        5.3424923194       -2.1394387505
 H          1.1168297697        5.4212067076       -0.3319666953
 H          1.2312662368        2.8155779399       -2.0161875687
