  62
        -98.93802910
 C          2.3176275708        1.3653906838       -0.0020073783
 C          3.0288567973        0.5886695189        0.9421998676
 C          3.7572501615       -0.5732546068        0.4124419735
 C          3.6985513000       -0.8367251556       -0.9058011120
 C          4.3196591865       -2.0238897453       -1.5855794224
 C          3.4520184464       -3.2776981287       -1.3539290461
 C          4.1219634347       -4.3629737122       -0.5099320122
 H          4.8528550316       -4.8896356045       -1.1270406542
 H          3.3481984974       -5.0812663955       -0.2301547402
 C          4.8386436077       -3.8820695934        0.7556116834
 H          5.8151326200       -3.4736907805        0.4915369725
 H          5.0257242535       -4.7659505655        1.3689650988
 C          4.0861005803       -2.8467321375        1.6013712153
 H          4.2476796296       -3.0856353240        2.6545301411
 H          3.0120487264       -2.9132078486        1.4225652706
 C          4.5492242613       -1.3921688802        1.3940029024
 H          5.6052928126       -1.3815496796        1.1115321282
 H          4.4570987331       -0.8572222326        2.3438767277
 H          3.1786456422       -3.7138882893       -2.3160285126
 H          2.5179476590       -2.9668805000       -0.8791994638
 H          5.3272439454       -2.1799572043       -1.2067625232
 H          4.3764617739       -1.7947005953       -2.6498121772
 O          2.9870393931       -0.0786623912       -1.7797648127
 C          2.2674599025        1.0292654255       -1.3549217314
 O          1.6477577132        1.6157717510       -2.2610790751
 O          3.0486770645        0.8519510973        2.1761125828
 C          1.5247298347        2.5666268370        0.4850860863
 C          0.0549511752        2.2990134074        0.2717895612
 C         -0.7898324902        3.1295254810       -0.4508772430
 C         -2.1178983231        2.7840739597       -0.6378210204
 C         -2.6316455567        1.6154502503       -0.1068975356
 C         -1.7963398929        0.7813358271        0.6254122247
 C         -0.4695516334        1.1306035621        0.8127480466
 H          0.1827410886        0.4761013456        1.3789162380
 N         -2.3110883528       -0.4109895838        1.1747503960
 S         -2.9642980723       -1.5147202185        0.0847176703
 O         -2.8404061565       -2.8038951395        0.7310573279
 O         -2.3594490566       -1.3904425581       -1.2219509984
 C         -4.6843913370       -1.0625381339        0.0153100002
 C         -5.4089132953       -1.0826154312        1.1912007275
 C         -6.7491098370       -0.7324170214        1.1566644386
 C         -7.3388723740       -0.3728190366       -0.0462565209
 C         -6.5983270329       -0.3610175649       -1.2183834430
 C         -5.2565310499       -0.7089946975       -1.1907349980
 H         -4.6385113124       -0.7081069515       -2.0745844554
 H         -7.0582269605       -0.0813391766       -2.1525634113
 H         -8.3820959181       -0.1001254333       -0.0706198944
 H         -7.3283313190       -0.7404763615        2.0658360119
 H         -4.9122313378       -1.3722124092        2.1021074866
 H         -1.6517417269       -0.8823003437        1.7786183692
 H         -3.6632952378        1.3415058018       -0.2566234249
 H         -2.7616595599        3.4350251919       -1.2093645054
 H         -0.4061341663        4.0397662713       -0.8808210872
 H          1.7082892678        2.6160847861        1.5685446157
 C          2.0197298879        3.8458286698       -0.1528665437
 C          1.8067812513        5.1578115898        0.5396167193
 C          3.1800225775        4.5629654513        0.4673836003
 H          3.9095057559        5.0208720967       -0.1835238962
 H          3.6035777049        4.1385983033        1.3660387613
 H          1.5946210175        6.0291838921       -0.0609529545
 H          1.2976165250        5.1425288995        1.4912471960
 H          1.9690641728        3.8207896053       -1.2352049471
