  62
        -98.94783279
 C          0.7666873826        1.2290700720        0.5914187269
 C          1.1745367144        0.6932965395       -0.6540180238
 C          2.1222423932       -0.4255823844       -0.5820162039
 C          2.4953550000       -0.9101585502        0.6157941398
 C          3.4908493215       -2.0127112560        0.8551224044
 C          4.9505761929       -1.5361248911        0.8424991353
 C          5.5107291702       -1.1887563535       -0.5376463135
 H          5.3261855975       -2.0165734591       -1.2227415820
 H          6.5927534323       -1.0921994713       -0.4276950199
 C          4.9599251378        0.1120277845       -1.1387527889
 H          5.7842034646        0.7012919047       -1.5471538559
 H          4.4991445691        0.7119854255       -0.3504168535
 C          3.9448013562       -0.0883653097       -2.2642964108
 H          4.4316577600       -0.5698897808       -3.1151394758
 H          3.5955117159        0.8951696754       -2.5881903499
 C          2.7181018760       -0.9196356543       -1.8651877729
 H          2.9888987942       -1.9707289256       -1.7805107640
 H          1.9604280658       -0.8104806835       -2.6443484605
 H          5.5589342878       -2.3392295881        1.2650158511
 H          5.0421493143       -0.6696484413        1.5016702439
 H          3.3610981382       -2.7988125863        0.1126013123
 H          3.2739193636       -2.4218338939        1.8437899603
 O          1.9925486044       -0.4354193757        1.7878701343
 C          1.1475856226        0.6622073218        1.8062044490
 O          0.8059718693        1.0298527913        2.9503838796
 O          0.7856335505        1.1365634267       -1.7649044838
 C         -0.1042859785        2.4699849656        0.6288172301
 C         -1.3686437018        2.2766348202       -0.1711292862
 C         -1.9208802841        3.2743901050       -0.9646522803
 C         -3.0990790081        3.0471440072       -1.6540944676
 C         -3.7502709259        1.8313818482       -1.5643877042
 C         -3.2066553744        0.8267798622       -0.7702068852
 C         -2.0285738042        1.0581292147       -0.0793519305
 H         -1.6152561509        0.2818184062        0.5486038965
 N         -3.8221055323       -0.4259642667       -0.6922928206
 S         -3.4926486647       -1.5319229473        0.5000423173
 O         -4.5062115044       -2.5508862918        0.3213016616
 O         -3.4440893787       -0.9259172868        1.8108187785
 C         -1.9123224665       -2.2258927328        0.0669086918
 C         -1.0504467881       -2.6006639779        1.0778394985
 C          0.1356610212       -3.2356625835        0.7482199924
 C          0.4392198563       -3.4786248248       -0.5817800771
 C         -0.4273102744       -3.0797905123       -1.5867355731
 C         -1.6190479963       -2.4526429481       -1.2626043142
 H         -2.3178817308       -2.1368378314       -2.0191639301
 H         -0.1805926344       -3.2601323595       -2.6204789143
 H          1.3551223018       -3.9874256174       -0.8361768984
 H          0.8130704122       -3.5380275382        1.5305775682
 H         -1.3194586532       -2.3823742572        2.1000477584
 H         -4.7346187488       -0.5164022778       -1.1100821302
 H         -4.6673327634        1.6540087436       -2.1046188196
 H         -3.5171020988        3.8292742664       -2.2694722458
 H         -1.4285289705        4.2295383139       -1.0452930118
 H         -0.3908460582        2.6112805479        1.6822834876
 C          0.7094282577        3.6684192466        0.1793367813
 C          0.4584739088        5.0244787051        0.7649687874
 C          1.6978311787        4.2669391370        1.1329316076
 H          2.6471793448        4.6080619338        0.7479461080
 H          1.7585759185        3.8295887502        2.1193911945
 H          0.5605233856        5.8898305029        0.1274437378
 H         -0.3186866314        5.1123345843        1.5092676620
 H          0.9972031485        3.6048260799       -0.8641038313
