  62
        -98.93508292
 C          1.0918002015        1.5882387011        0.3595014245
 C          1.7678682573        0.6096644441        1.1291573410
 C          2.9422103953       -0.0332924470        0.5127610721
 C          3.2680268951        0.2734032725       -0.7564355041
 C          4.4243280731       -0.1688034448       -1.6290975601
 C          5.3182077991       -1.3329583884       -1.2115545505
 C          4.6356945038       -2.6999895200       -1.2412658158
 H          4.4545859168       -2.9730422828       -2.2838419186
 H          5.3243490632       -3.4354315532       -0.8198057776
 C          3.3014740181       -2.7870318165       -0.5044595128
 H          2.9230622027       -3.8048173431       -0.6269275530
 H          2.5769200026       -2.1166796775       -0.9711136984
 C          3.3600870384       -2.4886245280        0.9918057367
 H          4.1002901834       -3.1346084927        1.4680922827
 H          2.3808935650       -2.7268559249        1.4129263076
 C          3.6731595080       -1.0304353006        1.3656436843
 H          3.3296976697       -0.8650178524        2.3910834250
 H          4.7434543000       -0.8373564050        1.3463953959
 H          5.7528814883       -1.1418126640       -0.2347841236
 H          6.1462334877       -1.3614859739       -1.9251511839
 H          5.0511379997        0.7208796961       -1.7569924925
 H          3.9924444783       -0.3821949406       -2.6120758417
 O          2.5326696990        1.1590399430       -1.4892069594
 C          1.4415164503        1.8391524363       -0.9670085291
 O          0.8970952771        2.6070693182       -1.7803247699
 O          1.4151866999        0.2929686923        2.2966309588
 C         -0.0848782739        2.3017367453        1.0005422192
 C         -1.2785579582        2.2664970982        0.0815410613
 C         -1.7981316649        3.3920715999       -0.5438276102
 C         -2.8817815159        3.2789994924       -1.3961252779
 C         -3.4807208897        2.0534340016       -1.6220164732
 C         -2.9714656310        0.9209863179       -0.9972338829
 C         -1.8734249513        1.0342842810       -0.1606122988
 H         -1.4718256377        0.1502229423        0.3148597565
 N         -3.5495722168       -0.3426583109       -1.2037577248
 S         -3.7970277814       -1.3411821916        0.1181544373
 O         -4.8787557522       -2.2154703379       -0.2846883916
 O         -4.0150904219       -0.5769785460        1.3239785104
 C         -2.3125162620       -2.3121278472        0.2535741999
 C         -1.8900348467       -3.0214427137       -0.8534220120
 C         -0.7729593578       -3.8328169506       -0.7406507525
 C         -0.1056784836       -3.9258851596        0.4715016270
 C         -0.5379328573       -3.2017420889        1.5714030186
 C         -1.6528803447       -2.3860188418        1.4637731642
 H         -2.0186564245       -1.8033458568        2.2946567538
 H         -0.0143117013       -3.2642365908        2.5122895246
 H          0.7557401015       -4.5688516738        0.5611705795
 H         -0.4278000764       -4.3934018007       -1.5944556155
 H         -2.4420945244       -2.9314294268       -1.7742018042
 H         -4.3519511156       -0.3409046687       -1.8172012744
 H         -4.3316472966        1.9686856978       -2.2812514904
 H         -3.2694337932        4.1588215900       -1.8872076954
 H         -1.3365874693        4.3525727869       -0.3844922740
 H         -0.3269390947        1.6891643815        1.8853146667
 C          0.2340355180        3.6966230503        1.5174510473
 C          1.5954487169        4.0225758784        2.0529994737
 C          1.1197091701        4.6548595870        0.7812222204
 H          0.8611020357        5.7036676209        0.7979668335
 H          1.5493001419        4.3271293090       -0.1521517818
 H          1.6668103324        4.6347849292        2.9394237295
 H          2.3525850362        3.2545206920        1.9894430516
 H         -0.6081159187        4.1268661686        2.0515894750
