  62
        -98.93734959
 C         -2.2882663312       -0.6658611882        0.1449777350
 C         -3.5357658407       -1.0105687331        0.7261834433
 C         -4.7321557386       -0.6005838658       -0.0164038421
 C         -4.5985107443        0.0704420890       -1.1745247076
 C         -5.7200915996        0.5346634018       -2.0637572073
 C         -6.3371439037        1.8755797330       -1.6429148517
 C         -7.2043558692        1.8265734523       -0.3843247674
 H         -7.7444601077        2.7738833844       -0.3305887316
 H         -7.9464392680        1.0341431660       -0.4862144681
 C         -6.4171996967        1.6330578532        0.9193100114
 H         -5.3633301120        1.8629474759        0.7456329440
 H         -6.7783861836        2.3382119836        1.6713097709
 C         -6.5249469846        0.2328247095        1.5231931675
 H         -7.5574158512        0.0415139836        1.8237374469
 H         -5.9009728824        0.1966220877        2.4198535265
 C         -6.0724679206       -0.8952506013        0.5868623094
 H         -6.8141628683       -1.0555691505       -0.1953490272
 H         -5.9783642298       -1.8115674764        1.1747969720
 H         -6.9575387092        2.2225094807       -2.4724340564
 H         -5.5324643647        2.6011610074       -1.5034386700
 H         -5.2958130612        0.6496485933       -3.0634769663
 H         -6.4972150605       -0.2292979252       -2.1013933920
 O         -3.3854976857        0.3988829226       -1.6912074989
 C         -2.2022645017        0.0649763502       -1.0409224546
 O         -1.1806505187        0.4749937378       -1.6220076847
 O         -3.6430602984       -1.6310654722        1.8173394025
 C         -1.0322622227       -1.0704959361        0.8942027978
 C         -0.0648759575        0.0826109133        0.9789006989
 C         -0.4559295603        1.2356939890        1.6559119677
 C          0.3979299530        2.3151949935        1.7662054891
 C          1.6702421828        2.2605762589        1.2242252134
 C          2.0682276331        1.1173771199        0.5428015741
 C          1.2012997797        0.0402404928        0.4196201719
 H          1.5312449353       -0.8229488561       -0.1338626002
 N          3.3433124485        1.0352712786       -0.0381622309
 S          4.1291816397       -0.4574519116       -0.0354640493
 O          3.7302386157       -1.2063108175       -1.2003759696
 O          3.9411815786       -1.1133637393        1.2393967117
 C          5.8244318160        0.0692554200       -0.2123347603
 C          6.2946835562        0.3837677123       -1.4735155055
 C          7.6018811085        0.8230876768       -1.6103721753
 C          8.4123168933        0.9408224031       -0.4908053822
 C          7.9270299846        0.6199017543        0.7679974136
 C          6.6201417198        0.1812359785        0.9122679616
 H          6.2020325449       -0.0875127697        1.8690036252
 H          8.5604614867        0.7092778215        1.6357681922
 H          9.4295161604        1.2820699074       -0.6007113600
 H          7.9834609127        1.0707802001       -2.5877260057
 H          5.6307964362        0.2680371239       -2.3144876825
 H          3.9568609343        1.7883479721        0.2403457765
 H          2.3423743535        3.1003010057        1.3162594856
 H          0.0764971454        3.2040124869        2.2883870495
 H         -1.4467033752        1.2742918482        2.0890451790
 H         -1.3835004558       -1.2885247810        1.9177328682
 C         -0.3855756231       -2.3485415018        0.3819566999
 C         -1.2022775354       -3.4363259713       -0.2465927710
 C         -0.2401672545       -2.6456824083       -1.0791041008
 H          0.6713022309       -3.1204707474       -1.4137444284
 H         -0.6316019659       -1.9226746252       -1.7776656563
 H         -0.9597018493       -4.4614970016       -0.0105755797
 H         -2.2589769383       -3.2546673605       -0.3790470985
 H          0.4322998360       -2.6697096495        1.0218648307
