  62
        -98.93799571
 C         -1.3101245304       -1.5050810480        0.4018830904
 C         -1.7000752601       -0.4416325871        1.2532760994
 C         -2.8604557295        0.3606611033        0.8347055585
 C         -3.4731714193        0.0713388127       -0.3256435415
 C         -4.7132385087        0.6861273630       -0.9269027724
 C         -4.8855283378        2.2053788832       -0.8245681436
 C         -3.5876927973        3.0129639023       -0.9703138838
 H         -2.7772855376        2.3711081015       -1.3228682131
 H         -3.7338568966        3.7904436918       -1.7228018445
 C         -3.1536555673        3.6922177930        0.3300051558
 H         -2.4637766767        4.5034389524        0.0845906854
 H         -4.0291944472        4.1348068839        0.8110083052
 C         -2.4366175682        2.7799907334        1.3228166267
 H         -2.2179975081        3.3634518739        2.2208715663
 H         -1.4762888682        2.4752798525        0.8946682273
 C         -3.2107066891        1.5135097742        1.7305729075
 H         -2.8866810295        1.2256998347        2.7344116078
 H         -4.2818897589        1.6991083548        1.7531564670
 H         -5.5842096274        2.4943825830       -1.6118459541
 H         -5.3587403580        2.4582905642        0.1230963360
 H         -4.6918763185        0.3932746422       -1.9797239622
 H         -5.5824678691        0.1981291839       -0.4749732023
 O         -3.0314656096       -0.9251868682       -1.1437546506
 C         -1.9174584302       -1.6948075086       -0.8392998597
 O         -1.5950819804       -2.4877295795       -1.7434122489
 H          0.6108615407       -0.0263959098       -0.3551061001
 C          1.2155606403       -0.8343947404       -0.7349803593
 C          0.9807737394       -2.1263072299       -0.2836268584
 C          1.7371848889       -3.1598800808       -0.8182867374
 C          2.6948943894       -2.8924101721       -1.7829312473
 C          2.9349446103       -1.6011961426       -2.2167903882
 C          2.1797330108       -0.5597088217       -1.6878399992
 N          2.3702622017        0.7684365478       -2.0935725902
 S          2.0718284621        2.0203450488       -1.0275610312
 O          0.6538984622        2.2101316898       -0.8500968518
 O          2.7891461330        3.1426393680       -1.5954225319
 C          2.8523109414        1.5260042796        0.4993309594
 C          2.1057418708        1.2285197409        1.6204912494
 C          2.7603937302        0.8083130914        2.7682432299
 C          4.1413076801        0.6951336605        2.7771899504
 C          4.8793027607        1.0079373592        1.6452265204
 C          4.2307583013        1.4252067687        0.4953519799
 H          4.7699815817        1.6883103277       -0.4000887401
 H          5.9540597506        0.9247545886        1.6555988708
 H          4.6438604796        0.3635847109        3.6720736509
 H          2.1773747898        0.5654721324        3.6424085399
 H          1.0302562209        1.3138458715        1.5938455290
 H          3.1755562020        0.9367893269       -2.6769450901
 H          3.6847689407       -1.3996914836       -2.9661442181
 H          3.2695074491       -3.7051472028       -2.2006433764
 H          1.5656510882       -4.1743389104       -0.4980176866
 C         -0.0683618410       -2.2888267085        0.7887789014
 H          0.3050917190       -1.7566719280        1.6814320611
 C         -0.2991049620       -3.7278067080        1.2215630624
 C         -1.6530977125       -4.2043668168        1.6532202424
 C         -1.0448087724       -4.7238989782        0.3867521430
 H         -0.6901409430       -5.7444149284        0.3728765139
 H         -1.4474739319       -4.3842667087       -0.5536902774
 H         -1.7196680031       -4.8636566461        2.5058508129
 H         -2.4764255520       -3.5089928064        1.5711988316
 H          0.5415804975       -4.1139426081        1.7902073930
 O         -1.0993007803       -0.1715036266        2.3282795494
