  62
        -98.93185759
 C         -2.5696317603       -1.0032757007        0.5075334686
 C         -2.8796469601        0.1675928082        1.2451861705
 C         -4.2001453902        0.7768267785        1.0151153916
 C         -5.0349897003        0.1997215099        0.1339369308
 C         -6.4038061903        0.6643995406       -0.2809671283
 C         -6.3243548005        1.5480083725       -1.5372756169
 C         -6.0912632504        3.0334758221       -1.2652573747
 H         -5.9302578805        3.5193753536       -2.2303505939
 H         -6.9946382804        3.4641637114       -0.8282160339
 C         -4.9053182003        3.3511962107       -0.3508787643
 H         -4.6149711203        4.3887725409       -0.5271569528
 H         -4.0524737603        2.7270503911       -0.6247229654
 C         -5.2275684801        3.1711326884        1.1401099454
 H         -6.3045205701        3.0574835182        1.2616498854
 H         -4.9491887700        4.0772434675        1.6823187968
 C         -4.5039117400        2.0056037673        1.8286135035
 H         -3.5284256200        2.3457395467        2.1901692739
 H         -5.0750994199        1.7044496259        2.7133610331
 H         -7.2578773006        1.4487000534       -2.0949034569
 H         -5.5226614606        1.1591170635       -2.1704963276
 H         -6.8992587202        1.1828998393        0.5344329926
 H         -6.9742800204       -0.2344357190       -0.5242928896
 O         -4.6962577104       -0.9172786690       -0.5633228509
 C         -3.4707159104       -1.5437715193       -0.4100157521
 O         -3.3348247405       -2.5468652282       -1.1375341436
 O         -2.0803672500        0.6826414869        2.0739309012
 C         -1.2155721002       -1.6361434311        0.7780010975
 C         -0.1888042404       -1.2375645496       -0.2563749720
 C         -0.3384220206       -1.5761460275       -1.5969407125
 C          0.6256850693       -1.2156091261       -2.5208257821
 C          1.7552730394       -0.5177724867       -2.1312216812
 C          1.9173749696       -0.1792656088       -0.7947311907
 C          0.9474874497       -0.5427981102        0.1320920889
 H          1.0696703598       -0.2660551218        1.1706984793
 N          3.0560157096        0.5405118006       -0.3931265498
 S          4.5369363195        0.0844382116       -1.0690583207
 O          4.6779087094        0.7440253435       -2.3431333297
 O          4.6478586995       -1.3565154084       -1.0881842529
 C          5.6847540897        0.7800772498        0.1030769903
 C          6.1755745598       -0.0192667718        1.1182025690
 C          7.0546044500        0.5299820468        2.0382394097
 C          7.4238063000        1.8623303569        1.9294913017
 C          6.9225152499        2.6518996585        0.9052023330
 C          6.0439475397        2.1089735399       -0.0188483978
 H          5.6374314796        2.6813142112       -0.8362452568
 H          7.2143757499        3.6864093986        0.8229136045
 H          8.1092399901        2.2868502558        2.6459285322
 H          7.4484392501       -0.0821065045        2.8336168687
 H          5.8700139398       -1.0526402519        1.1577003674
 H          3.1181123598        0.6338524390        0.6113823404
 H          2.5158179693       -0.2382920756       -2.8427849509
 H          0.4975504292       -1.4829383045       -3.5593225725
 H         -1.2191188706       -2.1167381570       -1.9080624833
 H         -0.8954756501       -1.2155305526        1.7409786381
 C         -1.2706042102       -3.1456651914        0.9131076952
 C         -0.1812554501       -3.8457392725        1.6664524239
 C         -1.5577996601       -3.7525520734        2.2520357543
 H         -2.1653031001       -4.6440006935        2.2925873830
 H         -1.7146335999       -3.0795182547        3.0824745453
 H          0.1617181598       -4.8025368420        1.3040098524
 H          0.5972142599       -3.2369860532        2.1010669648
 H         -1.6814727804       -3.6414081600        0.0437187445
