  62
        -98.94716348
 C         -1.6135562504       -1.5658338822       -0.2487757113
 C         -2.7766051681       -1.2272630829        0.4899848921
 C         -3.5552360880       -0.0931597611       -0.0172083236
 C         -3.1561097194        0.5444332561       -1.1324495825
 C         -3.8568936932        1.7032813226       -1.7888326973
 C         -3.5085863381        3.0733527314       -1.1907358730
 C         -4.0852926296        3.3442861807        0.1991437270
 H         -3.9370711433        4.4061028200        0.4058894280
 H         -5.1607773393        3.1646627029        0.1858660158
 C         -3.4387065830        2.5249077295        1.3251528852
 H         -3.2153251992        3.1793021595        2.1705449291
 H         -2.4882216174        2.1111339302        0.9801875966
 C         -4.3092477101        1.3850896400        1.8546176248
 H         -3.7450192616        0.8515871227        2.6237192926
 H         -5.2083994406        1.7947063492        2.3202859721
 C         -4.7329156460        0.3674732368        0.7868377062
 H         -5.1548402333       -0.5051244720        1.2913666351
 H         -5.4949330666        0.7974770620        0.1371349491
 H         -3.8942348638        3.8330308414       -1.8746509913
 H         -2.4221773846        3.1763411040       -1.1598098313
 H         -3.5515999535        1.6984635305       -2.8376723080
 H         -4.9354404287        1.5496274856       -1.7426349664
 O         -2.0460694377        0.1768757111       -1.8243977466
 C         -1.2333047730       -0.8630466611       -1.3917442409
 O         -0.2353328006       -1.0501416896       -2.1141127604
 H          1.6607566133       -2.2359555869       -0.9568372122
 C          1.6380213127       -1.8531265015        0.0508615840
 C          0.5105562199       -2.0396340061        0.8357005474
 C          0.4992513561       -1.5094595404        2.1231048845
 C          1.5890013868       -0.8124507743        2.6109247082
 C          2.7034106142       -0.6065030809        1.8159718245
 C          2.7164206989       -1.1202614056        0.5262877740
 N          3.8167761638       -0.8543682090       -0.3110117053
 S          4.2959378907        0.7492745326       -0.3889572702
 O          4.8305944679        0.9311760658       -1.7205864327
 O          5.2140791072        1.0229219490        0.6899611187
 C          2.8146878998        1.7234232783       -0.1657429870
 C          2.7752291958        2.6739544187        0.8347186291
 C          1.6221048460        3.4219424683        1.0072016394
 C          0.5298147963        3.2068725367        0.1810391078
 C          0.5868705738        2.2511867970       -0.8210692367
 C          1.7376092533        1.5007485137       -0.9999291041
 H          1.7825015379        0.7445035553       -1.7678447001
 H         -0.2591545193        2.0669388078       -1.4652196517
 H         -0.3703130314        3.7859197675        0.3199884986
 H          1.5755599754        4.1661212572        1.7857993809
 H          3.6446468501        2.8036979611        1.4586216884
 H          3.7075802007       -1.2341011054       -1.2407882691
 H          3.5560862008       -0.0489247063        2.1686380057
 H          1.5679287171       -0.4140653319        3.6137165409
 H         -0.3851500519       -1.6371478377        2.7311997537
 C         -0.7366997522       -2.6867166871        0.2878479834
 H         -1.2978738168       -3.1199969358        1.1261129956
 C         -0.4743587002       -3.7706714844       -0.7351563928
 C          0.0994715149       -5.0785461182       -0.2808114581
 C         -1.3272522350       -5.0023841762       -0.7321738952
 H         -1.5936722598       -5.4459147422       -1.6799114708
 H         -2.1042097910       -5.0716778712        0.0149273853
 H          0.8149147535       -5.5778614237       -0.9162418090
 H          0.2918811974       -5.1968782088        0.7748140871
 H         -0.1654118098       -3.3909556253       -1.7010907139
 O         -3.1455399134       -1.8466362633        1.5221184092
