  62
        -98.93793543
 C         -2.2094412563       -0.9069558794       -0.0514111828
 C         -3.2181198466       -0.7689237558        0.9350801924
 C         -4.1307940418        0.3727581227        0.7818079947
 C         -3.9410250328        1.2279008313       -0.2393861114
 C         -4.8256892447        2.3947369199       -0.5753056735
 C         -6.1070004608        1.8990673267       -1.2761710660
 C         -7.3914636330        2.1328750057       -0.4806504427
 H         -7.6613943846        3.1890054846       -0.5454935056
 H         -8.1846850347        1.5597319339       -0.9653589679
 C         -7.3365825624        1.7536013297        1.0023324376
 H         -6.8355705949        2.5429432747        1.5646781391
 H         -8.3677413128        1.7229087154        1.3605659584
 C         -6.6620466651        0.4148716616        1.3283247587
 H         -6.6990746277       -0.2542381128        0.4684839287
 H         -7.2288895293       -0.0643886157        2.1290195481
 C         -5.2072129715        0.5332801344        1.8197604593
 H         -5.0733543999        1.4861862864        2.3392352647
 H         -5.0172598376       -0.2645093137        2.5437449119
 H         -6.2079889691        2.3955898069       -2.2424561679
 H         -5.9934872267        0.8325982792       -1.4817989678
 H         -5.0720204639        2.9423332873        0.3317312484
 H         -4.2595951878        3.0513542993       -1.2364400702
 O         -2.9441912667        1.0797467198       -1.1495394821
 C         -2.0550974887        0.0163395534       -1.0849145721
 O         -1.2044277663        0.0148520084       -1.9961940104
 O         -3.3494470937       -1.5685828436        1.8997588485
 C         -1.2463468669       -2.0767298979        0.0757042145
 C          0.1057543900       -1.5331755716        0.4653308045
 C          0.3656797571       -1.2499441105        1.8035023996
 C          1.5702954000       -0.6901796753        2.1848160105
 C          2.5374025614       -0.3914866640        1.2402851844
 C          2.2794341164       -0.6516773575       -0.0982750181
 C          1.0777260445       -1.2361809815       -0.4769095506
 H          0.8857668280       -1.4205962691       -1.5219596263
 N          3.2481899210       -0.3402359469       -1.0676418734
 S          3.9946538640        1.1611053780       -0.9955237885
 O          3.1484522729        2.1582925851       -0.3813866391
 O          4.4329655606        1.4311933462       -2.3477285473
 C          5.4268499391        0.8630722811        0.0223745396
 C          6.2644972306       -0.1800791151       -0.3213955109
 C          7.3871963233       -0.4204276736        0.4543191635
 C          7.6543295340        0.3835070852        1.5525547235
 C          6.8061196451        1.4293232709        1.8823153650
 C          5.6805346275        1.6743504235        1.1108724063
 H          4.9891860675        2.4719367609        1.3327270116
 H          7.0151076949        2.0537821691        2.7360641861
 H          8.5285541810        0.1938944272        2.1551078589
 H          8.0490446355       -1.2328428333        0.2010383024
 H          6.0225122164       -0.7792661759       -1.1831208569
 H          2.9468803515       -0.5400780463       -2.0109162819
 H          3.4742695699        0.0564744548        1.5284782347
 H          1.7594257847       -0.4805840839        3.2266774509
 H         -0.3980597866       -1.4618689965        2.5386751944
 H         -1.6273376296       -2.6737863750        0.9149545811
 C         -1.2241954879       -2.9419628816       -1.1667139317
 C         -0.5946074214       -4.3003475728       -1.0989812718
 C         -2.0822443486       -4.1689529525       -1.2200088246
 H         -2.5496161717       -4.4289603914       -2.1580272854
 H         -2.6879565883       -4.3929169477       -0.3542556706
 H         -0.0382830626       -4.6545587736       -1.9532511472
 H         -0.1886701385       -4.6116899416       -0.1485320433
 H         -1.1158198337       -2.3767605590       -2.0843717910
