  62
        -98.93526585
 C         -1.7264727413       -0.9055005200        0.2905004440
 C         -3.0770377795       -1.1708200420        0.6314379699
 C         -4.0001271251       -0.0294615837        0.5743170407
 C         -3.5281286509        1.1901998117        0.2613722159
 C         -4.3134133835        2.4738295864        0.2049716111
 C         -5.4040692075        2.5581733827       -0.8801763164
 C         -6.8044539903        2.1545118494       -0.4023120173
 H         -6.8603843300        2.2925265294        0.6781831964
 H         -7.5352930045        2.8354551998       -0.8432591843
 C         -7.2480368476        0.7325720622       -0.7594964526
 H         -7.5489945772        0.7057055824       -1.8093549566
 H         -8.1294493726        0.4964569705       -0.1593825230
 C         -6.2026736954       -0.3642660715       -0.5555472951
 H         -5.4612106216       -0.3175345795       -1.3571351683
 H         -6.6997505529       -1.3315589376       -0.6530781772
 C         -5.4595712770       -0.3026701583        0.7931792640
 H         -5.8994648992        0.4542391339        1.4407989658
 H         -5.5236855392       -1.2685713476        1.2983486704
 H         -5.1078742817        1.9603190947       -1.7418786605
 H         -5.4434921088        3.5982739695       -1.2077665531
 H         -3.5746770116        3.2583273860        0.0288275286
 H         -4.7631351614        2.6525912602        1.1843132208
 O         -2.2132401899        1.4137091161       -0.0054112664
 C         -1.2830473790        0.3822250465       -0.0098528847
 O         -0.1263929329        0.7538809619       -0.2788453049
 O         -3.4901019887       -2.3084807615        0.9805465273
 C         -0.7540976859       -2.0702961363        0.3080690404
 C          0.5226246158       -1.6908982010        1.0149903748
 C          0.4598206725       -1.3489097113        2.3641243068
 C          1.6005081469       -1.0040807313        3.0615485471
 C          2.8314832132       -0.9967580133        2.4285446352
 C          2.9068910975       -1.3385375823        1.0843520701
 C          1.7573848534       -1.6851381994        0.3853898286
 H          1.8442985844       -1.9167045394       -0.6626401429
 N          4.1511999856       -1.3792670218        0.4264504130
 S          4.4224928599       -0.4712980079       -0.9534369020
 O          3.4581479225       -0.8102407538       -1.9659497668
 O          5.8095254251       -0.7211653247       -1.2843046488
 C          4.2455078453        1.2233185956       -0.4237473772
 C          2.9841264096        1.7349677270       -0.1946867610
 C          2.8726856523        3.0337425586        0.2794789878
 C          4.0092443974        3.7911479399        0.5153973115
 C          5.2685253673        3.2596028462        0.2800274771
 C          5.3897918816        1.9621356407       -0.1890680370
 H          6.3467210440        1.5072461957       -0.3883308701
 H          6.1520945630        3.8499188783        0.4625564122
 H          3.9118463235        4.8003358047        0.8839285044
 H          1.8887215048        3.4366464956        0.4605949715
 H          2.1069212799        1.1364862534       -0.3829406540
 H          4.9399044427       -1.2680764622        1.0488163443
 H          3.7263334459       -0.7308032138        2.9709414762
 H          1.5331836571       -0.7377867303        4.1055671961
 H         -0.5028963927       -1.3536243893        2.8575276359
 H         -1.2597992440       -2.8385323318        0.9176587512
 C         -0.5134465910       -2.6937487622       -1.0586912577
 C         -1.5741243462       -2.6804557981       -2.1173376553
 C         -0.3278924907       -1.8685787237       -2.2949534404
 H          0.4055437859       -2.1888049831       -3.0208761246
 H         -0.3895943932       -0.7961051464       -2.1954626839
 H         -1.7054725010       -3.5644950070       -2.7229969622
 H         -2.4955519017       -2.1608398100       -1.8977039227
 H          0.0806305289       -3.6004382200       -0.9894389068
