  62
        -98.93338504
 C         -1.8692851808       -0.7192136499        0.7366000600
 C         -2.1540755007       -0.2238649301       -0.5590688201
 C         -2.4800526007        1.2083464499       -0.6367358103
 C         -2.4229977407        1.9619932700        0.4751774796
 C         -2.7770106506        3.4190834001        0.5445980694
 C         -4.2605766606        3.6148054202        0.8886823193
 C         -5.2092533406        2.7754401801        0.0327597194
 H         -5.0459658107        1.7182530201        0.2541088396
 H         -6.2274952306        3.0165702902        0.3453529094
 C         -5.0701057106        3.0032873099       -1.4788357306
 H         -6.0682534306        3.0939219899       -1.9122578206
 H         -4.5486920705        3.9428053399       -1.6647285607
 C         -4.3601764006        1.8738767498       -2.2276977004
 H         -4.8213487507        0.9171310598       -1.9706893603
 H         -4.5069966806        2.0316544296       -3.2993586805
 C         -2.8495624306        1.7587146797       -1.9855693304
 H         -2.3727808506        2.7273241597       -2.1492384205
 H         -2.4463908106        1.0505158896       -2.7154125003
 H         -4.4106472307        3.3410036903        1.9356166794
 H         -4.5039654006        4.6727557302        0.7753958792
 H         -2.1661215706        3.8832413801        1.3208783694
 H         -2.5480656406        3.8873920499       -0.4107245806
 O         -2.0829318807        1.4622628102        1.6922647397
 C         -1.8094172008        0.1149358102        1.8523146799
 O         -1.5360804108       -0.2173366797        3.0258735399
 O         -2.1472490107       -0.9303197702       -1.5988461100
 C         -1.5315985509       -2.1909468599        0.9554225802
 C         -0.4003830609       -2.5389574401        0.0173288503
 C         -0.4242421509       -3.3961050602       -1.0744183396
 C          0.6981555991       -3.5514249704       -1.8720992896
 C          1.8601542492       -2.8496125304       -1.6201574696
 C          1.9000505492       -1.9878845603       -0.5292524897
 C          0.7867880892       -1.8572236701        0.2806152802
 H          0.8303759992       -1.1765793600        1.1206069301
 N          3.0662995992       -1.2619934403       -0.2246803298
 S          2.8864212193        0.2947082298        0.4058223000
 O          2.7022725192        0.1978281800        1.8328545500
 O          1.8757455893        1.0227904297       -0.3294201701
 C          4.5071841393        0.9564322297        0.0625694599
 C          4.6933614994        1.7763389695       -1.0340204702
 C          5.9669002394        2.2510946494       -1.3074507302
 C          7.0270489793        1.8961760595       -0.4870828201
 C          6.8245278993        1.0725497096        0.6105871500
 C          5.5537521193        0.5963443997        0.8908733300
 H          5.3446444892       -0.0375631201        1.7366895101
 H          7.6502719493        0.8005219897        1.2479322000
 H          8.0169591994        2.2657353394       -0.7030691501
 H          6.1262056394        2.8941432093       -2.1579308903
 H          3.8374587294        2.0294374495       -1.6391126202
 H          3.7382597792       -1.2745368204       -0.9805308798
 H          2.7236310392       -2.9587946405       -2.2584703096
 H          0.6540320891       -4.2189172905       -2.7194876695
 H         -1.3179119309       -3.9279387802       -1.3439547996
 H         -1.1091390209       -2.2333332798        1.9735644202
 C         -2.8166628809       -3.0022099999        1.0174071303
 C         -3.6191515909       -3.4556970100       -0.1620375797
 C         -2.9334237010       -4.4649970799        0.7114614005
 H         -3.5489473210       -5.0641736298        1.3662338305
 H         -2.0647573710       -4.9827107800        0.3396123005
 H         -4.6946198809       -3.3717854199       -0.0938776897
 H         -3.2379303409       -3.2378019101       -1.1460198797
 H         -3.4006013909       -2.6531327097        1.8673788002
