  62
        -98.93541757
 C         -1.7703685199       -1.3079952388        0.1802961707
 C         -2.9860157797       -0.9157811983        0.7897281806
 C         -3.7675571796        0.1456643515        0.1243281702
 C         -3.2651857296        0.7155535509       -0.9864992602
 C         -3.8474448594        1.8354557806       -1.8076067707
 C         -3.6886953591        3.2096504709       -1.1376481613
 C         -4.0190658590        3.2412181317        0.3523294987
 H         -3.7693058787        4.2376723518        0.7267474182
 H         -3.3790028891        2.5298138418        0.8779330790
 C         -5.4792722790        2.9630053721        0.7014403089
 H         -6.1139399089        3.6946524820        0.1966433186
 H         -5.5894570889        3.1158291627        1.7782055488
 C         -5.9910201993        1.5599252721        0.3673955296
 H         -6.2115384994        1.4633158216       -0.6923777603
 H         -6.9400892493        1.4260817625        0.8946170498
 C         -5.0775977695        0.4253484321        0.8204165601
 H         -5.6408289397       -0.5148282178        0.7739649106
 H         -4.8351625694        0.5607092026        1.8808649900
 H         -4.3194298690        3.9259022208       -1.6668588916
 H         -2.6490812690        3.5263227906       -1.2545554216
 H         -4.8910054195        1.6322857107       -2.0292128605
 H         -3.3026558195        1.8464567800       -2.7542677807
 O         -2.0621337897        0.3444441904       -1.5087664501
 C         -1.2894814098       -0.6709621595       -0.9639472796
 O         -0.2287443899       -0.8808200500       -1.5770796896
 O         -3.4079225597       -1.4264812877        1.8629779009
 C         -0.9717646400       -2.4112368187        0.8485285212
 C          0.4876097001       -2.0398331489        0.9582649309
 C          1.5265751099       -2.9130993692        0.6627595412
 C          2.8447182700       -2.5162464394        0.8124832509
 C          3.1590010102       -1.2396878193        1.2379923603
 C          2.1276800704       -0.3494309589        1.5114280399
 C          0.8094581603       -0.7599126287        1.3935914802
 H          0.0114090805       -0.0633358085        1.6215511300
 N          2.4316272007        0.9671164912        1.8935705693
 S          3.6921490808        1.7478605906        1.1164605488
 O          4.9298863908        1.4389077707        1.7908021388
 O          3.3195503311        3.1465315206        1.1125292781
 C          3.7533388306        1.1096801197       -0.5497413609
 C          4.9664770004        0.6948942993       -1.0624465808
 C          5.0134328002        0.1943614686       -2.3532554406
 C          3.8500867302        0.1078276485       -3.1025168804
 C          2.6401652503        0.5310890490       -2.5750083605
 C          2.5901055205        1.0435765996       -1.2892842408
 H          1.6534484806        1.3668865600       -0.8636248809
 H          1.7254409302        0.4432996089       -3.1384580704
 H          3.8830339100       -0.2951288320       -4.1024658202
 H          5.9532984501       -0.1343790118       -2.7667192205
 H          5.8425153205        0.7642285494       -0.4379309909
 H          1.6260253908        1.5693290014        1.9752828090
 H          4.1802389103       -0.9164776694        1.3603725601
 H          3.6396891898       -3.2099265697        0.5861564812
 H          1.3092837297       -3.9047510594        0.3031145317
 H         -1.3793952799       -2.4554402381        1.8734062912
 C         -1.1950285503       -3.7883091089        0.2371498919
 C         -2.3775048005       -4.0745887891       -0.6382821279
 C         -1.0010001805       -4.0401912397       -1.2273896780
 H         -0.5523366407       -4.9733912499       -1.5346816376
 H         -0.7259464504       -3.1968141300       -1.8409107385
 H         -2.8716137206       -5.0288598490       -0.5315816374
 H         -3.0505217303       -3.2592553291       -0.8616701882
 H         -0.9036176004       -4.5869665386        0.9120716622
