  62
        -98.94606660
 C         -1.6576675003       -1.3017460696        0.4119940902
 C         -1.5530824004       -0.2449671795       -0.5245842597
 C         -2.4350573402        0.9062299305       -0.2863603794
 C         -3.2349219101        0.9294378305        0.7949538907
 C         -4.1632258599        2.0459012805        1.1890542510
 C         -5.5316428700        1.9919189507        0.4960893012
 C         -5.5243830302        2.3685185409       -0.9859789287
 H         -6.5654643203        2.4970549710       -1.2888182385
 H         -5.0280466201        3.3311106609       -1.1134486787
 C         -4.8702482705        1.3239851610       -1.9011288890
 H         -5.5038345206        1.1586031211       -2.7755278689
 H         -4.7999007705        0.3700762609       -1.3732781091
 C         -3.4831310005        1.7097465609       -2.4151352491
 H         -3.1027925307        0.8851442009       -3.0235375193
 H         -3.5620242405        2.5907034210       -3.0561375390
 C         -2.4555644103        1.9997347007       -1.3127733393
 H         -1.4664576304        2.0474054706       -1.7756257994
 H         -2.6708236701        2.9606673006       -0.8453648491
 H         -6.1912697099        2.6859619207        1.0219332714
 H         -5.9446732601        0.9875057607        0.6146887212
 H         -4.3197222797        1.9537238704        2.2658847110
 H         -3.6908417098        3.0075395805        0.9870246711
 O         -3.2758635900       -0.0890545496        1.6936580406
 C         -2.5106760101       -1.2280992497        1.5174524103
 O         -2.6706792501       -2.0935437398        2.4003279302
 H          1.1490177793       -1.8378420796       -1.4767167004
 C          1.4787570695       -1.7927392498       -0.4514681504
 C          0.6199116496       -2.1688934999        0.5686040697
 C          1.0658926798       -2.0753875801        1.8840835396
 C          2.3399612499       -1.6190619602        2.1676935595
 C          3.1853179698       -1.2158718802        1.1479691094
 C          2.7406987896       -1.2907309100       -0.1649181305
 N          3.5592436994       -0.8106577599       -1.2033500306
 S          4.2609878296        0.6892774400       -0.9570568405
 O          4.3533836295        1.2939504402       -2.2682596705
 O          5.5166608597        0.5169968498       -0.2668855908
 C          3.1455815699        1.6191972800        0.0870978298
 C          1.7992936498        1.6712877301       -0.2165212400
 C          0.9570210000        2.3973371001        0.6105851802
 C          1.4685108703        3.0657554199        1.7116632602
 C          2.8237656603        3.0119317998        1.9970093500
 C          3.6698163001        2.2790043998        1.1809288998
 H          4.7273616102        2.1975898397        1.3735223296
 H          3.2212513805        3.5322139496        2.8534954300
 H          0.8046207504        3.6275399299        2.3496520804
 H         -0.0991855100        2.4234232002        0.3923074604
 H          1.4022001797        1.1409650503       -1.0681667800
 H          3.1132011893       -0.8475476598       -2.1090885705
 H          4.1739812299       -0.8353795403        1.3493239093
 H          2.6746266301       -1.5613801104        3.1921215094
 H          0.3920411699       -2.3506596301        2.6834042597
 C         -0.8106255105       -2.5605845697        0.2930922099
 H         -1.1459489504       -3.2276707498        1.0975376498
 C         -1.0137150508       -3.2585487395       -1.0353574002
 C         -0.5280519709       -4.6658805195       -1.2037797604
 C         -1.9978590109       -4.3839496594       -1.1276377202
 H         -2.5891573210       -4.4786964492       -2.0262271401
 H         -2.5263557907       -4.6618116495       -0.2273237101
 H         -0.0571473108       -5.1344882397       -0.3528815206
 H         -0.1085849011       -4.9582671794       -2.1543090705
 H         -0.9477317908       -2.5952256294       -1.8884570901
 O         -0.7739040205       -0.2438461895       -1.5136962598
