  62
        -98.94784747
 C         -1.0153021851       -0.9584580180        0.7208152331
 C         -1.6800334766       -0.8648798972       -0.5253253238
 C         -2.3530395679        0.4116600455       -0.7931972498
 C         -2.2472129538        1.4222749170        0.0873497254
 C         -2.8341202162        2.7994089865       -0.0689518702
 C         -4.3066688125        2.9066223676        0.3509494749
 C         -5.3064191059        2.2517663478       -0.6027676283
 H         -6.3010819288        2.5900308589       -0.3056703708
 H         -5.1288540624        2.6124974042       -1.6164321834
 C         -5.2822901656        0.7170373993       -0.5892196641
 H         -4.7681595511        0.3684022419        0.3092288513
 H         -6.3051697874        0.3369838284       -0.5420872250
 C         -4.6196676113        0.0839195967       -1.8128001503
 H         -4.6228249840       -1.0012240382       -1.6827383042
 H         -5.2009651369        0.3175209003       -2.7076082565
 C         -3.1691376926        0.5277134554       -2.0443008274
 H         -3.1409955375        1.5495798201       -2.4234533762
 H         -2.7187862024       -0.1302212407       -2.7920704861
 H         -4.4170191982        2.4735350105        1.3476220017
 H         -4.5475814516        3.9698728085        0.4208688758
 H         -2.7207805548        3.1268410886       -1.1033341407
 H         -2.2462289867        3.4633699182        0.5690592612
 O         -1.5488428043        1.3118595912        1.2491976791
 C         -0.9244240504        0.1228559181        1.5955070859
 O         -0.3236125016        0.1584482109        2.6885982177
 O         -1.7140178755       -1.7969683439       -1.3710572501
 C         -0.2563014019       -2.2234724687        1.0836045311
 C          0.8418859535       -2.4274456346        0.0672191358
 C          1.1010354053       -3.6326790458       -0.5705521310
 C          2.0982874728       -3.7128809943       -1.5281392301
 C          2.8405528513       -2.6001261507       -1.8785294303
 C          2.5983119713       -1.3922981447       -1.2328753755
 C          1.6260667039       -1.3255169632       -0.2505848124
 H          1.4417774481       -0.3871972958        0.2520583569
 N          3.3333070879       -0.2381157880       -1.5409021322
 S          2.6009083475        1.2634901922       -1.4458785782
 O          1.2101564744        1.2209464356       -1.8349925736
 O          3.4523379981        2.1216738308       -2.2451416557
 C          2.7621834888        1.7315620225        0.2631683180
 C          3.9535243757        1.4825582640        0.9153362143
 C          4.0815561578        1.8674900206        2.2400022738
 C          3.0252486357        2.4932760703        2.8847513320
 C          1.8386609228        2.7429431219        2.2137586575
 C          1.7055103924        2.3614986340        0.8887046237
 H          0.7923384001        2.5201019019        0.3353272628
 H          1.0107887933        3.2161719267        2.7167569356
 H          3.1228354225        2.7853073382        3.9184089799
 H          5.0017169326        1.6743572010        2.7677070668
 H          4.7498817947        0.9894106268        0.3833530805
 H          3.9486455803       -0.3159509127       -2.3374178190
 H          3.5966606035       -2.6598476480       -2.6463847503
 H          2.2867970996       -4.6531463351       -2.0238440614
 H          0.5145117637       -4.5043400509       -0.3309597672
 H          0.2118264230       -2.0289770623        2.0597786582
 C         -1.1954564315       -3.4029289516        1.2143722935
 C         -0.8455164492       -4.5471469613        2.1165135069
 C         -1.9386334818       -3.5971285996        2.5007405836
 H         -2.9615100372       -3.9400043975        2.4585189970
 H         -1.7479502573       -2.8895508241        3.2946813612
 H         -1.1204880195       -5.5460131617        1.8130466474
 H          0.0869736451       -4.4900861798        2.6572116751
 H         -1.7245260948       -3.6174238285        0.2931527645
