  62
        -98.94032882
 C          1.0969387697        1.5385611301       -0.3004460109
 C          1.1603932093        0.1330969301       -0.4526093008
 C          2.2617470092       -0.5543121602        0.2504030291
 C          3.1077269195        0.1581576196        1.0122057089
 C          4.3018186695       -0.3372418107        1.7813318488
 C          5.5824807394       -0.2331114512        0.9353928386
 C          5.8729990488       -1.4462683614        0.0529155686
 H          6.7285778788       -1.1921846917       -0.5769442315
 H          6.1689596587       -2.2862695414        0.6848407586
 C          4.7159647686       -1.8916053511       -0.8444925812
 H          5.1333133382       -2.4884255613       -1.6576146112
 H          4.2422636488       -1.0168858509       -1.2933282512
 C          3.6639590184       -2.7287699707       -0.1017398609
 H          3.4834575380       -3.6546011907       -0.6519491709
 H          4.0591859685       -3.0206620607        0.8710011590
 C          2.2999515787       -2.0483890002        0.0767702492
 H          1.6798424585       -2.2390588801       -0.8049217907
 H          1.7785512886       -2.5007691000        0.9284844293
 H          6.4328725095       -0.0904920114        1.6053055584
 H          5.5010821096        0.6632065488        0.3152954685
 H          4.4028006398        0.3192213793        2.6484421487
 H          4.1406216392       -1.3523813907        2.1320177389
 O          3.0049545400        1.5098067296        1.1442860789
 C          2.0100787201        2.2229719299        0.5065021590
 O          2.0441684705        3.4519265399        0.7241753689
 H         -1.4652016306        0.2760290610       -0.1957753204
 C         -1.8530477803        1.1910419611        0.2197212096
 C         -1.2182598199        2.3927479109       -0.0587882806
 C         -1.7288494595        3.5621430411        0.4918505294
 C         -2.8425397494        3.5231702415        1.3123606896
 C         -3.4540770697        2.3193131417        1.6131780998
 C         -2.9488972202        1.1447786115        1.0670318298
 N         -3.5388249405       -0.0978132983        1.3395181800
 S         -2.5687766309       -1.4565931486        1.4895535799
 O         -3.3820476111       -2.3899698783        2.2463813601
 O         -1.2880209107       -1.1377921089        2.0796719297
 C         -2.3855904914       -2.0968542988       -0.1604179901
 C         -1.3562307917       -2.9848933091       -0.3934510401
 C         -1.2166834721       -3.5353509492       -1.6566297201
 C         -2.1070583921       -3.1902389890       -2.6604072300
 C         -3.1391638018       -2.3002768987       -2.4084853299
 C         -3.2859316614       -1.7480954185       -1.1460982499
 H         -4.0708042612       -1.0444422083       -0.9228889099
 H         -3.8274884118       -2.0290200085       -3.1930891798
 H         -1.9918322424       -3.6134997891       -3.6460479700
 H         -0.4096718923       -4.2230588695       -1.8537377902
 H         -0.6766458517       -3.2139536293        0.4117674198
 H         -4.2793949604       -0.0866190580        2.0254320501
 H         -4.3100572396        2.2856213320        2.2699966099
 H         -3.2293758390        4.4377429817        1.7358133096
 H         -1.2349477292        4.5014310209        0.2902679993
 C          0.0169491399        2.4089767004       -0.9271647807
 H          0.4180372802        3.4317901503       -0.9208584809
 C         -0.3225924304        2.0340361504       -2.3563826107
 C         -0.9612099202        3.0599960206       -3.2416790706
 C          0.4582039896        2.6421625301       -3.4805849608
 H          0.6811403193        2.0300777000       -4.3413470408
 H          1.2449396399        3.3372455499       -3.2243589910
 H         -1.7166764004        2.7365803408       -3.9407831505
 H         -1.1363459299        4.0410329507       -2.8265246107
 H         -0.6353799108        1.0045838405       -2.4669696805
 O          0.3561141389       -0.5444980797       -1.1462997206
