  62
        -98.93229398
 C          2.4799624103        0.8339448732        0.0625170469
 C          2.9249875854       -0.2960506536        0.7909707631
 C          4.0930564925       -1.0284636975        0.2673878214
 C          4.6629406537       -0.5970664019       -0.8729366714
 C          5.8744267518       -1.1480659326       -1.5765501091
 C          7.1901647444       -0.7573074474       -0.8834864562
 C          7.1748147927       -0.8723301459        0.6386795315
 H          8.1148572552       -0.4577852104        1.0125029319
 H          6.3679416743       -0.2542093711        1.0368119128
 C          7.0421326974       -2.2925219889        1.1832425626
 H          7.8777334378       -2.8947549967        0.8194555302
 H          7.1258751222       -2.2318665363        2.2714318555
 C          5.7384141619       -3.0191885312        0.8471794292
 H          5.6876117158       -3.9067618311        1.4847342500
 H          5.7430362155       -3.3766892876       -0.1789117470
 C          4.4704264817       -2.2158190054        1.1199818743
 H          4.4930457875       -1.8493815692        2.1527157996
 H          3.6106636914       -2.8954899201        1.0755329938
 H          7.4072484110        0.2836730606       -1.1351018865
 H          7.9917736104       -1.3764067561       -1.2896446868
 H          5.7909616452       -2.2265835065       -1.6723572669
 H          5.8724572329       -0.7234417090       -2.5828292354
 O          4.1982150241        0.4914482866       -1.5467058829
 C          3.1072958637        1.2313180845       -1.1185470889
 O          2.8227628688        2.1826507295       -1.8678696949
 O          2.3715916572       -0.6783468701        1.8586570219
 C          1.2849647119        1.5783107962        0.6292639790
 C         -0.0047360031        1.0440202843        0.0604924127
 C         -0.1995251306        0.9314390677       -1.3125989262
 C         -1.3959939809        0.4501198128       -1.8121120644
 C         -2.4167579211        0.0673926636       -0.9591194659
 C         -2.2323449352        0.1725241320        0.4125569140
 C         -1.0307544052        0.6604836064        0.9114152157
 H         -0.8861977839        0.7297917726        1.9814118645
 N         -3.2586662297       -0.2292987872        1.2824879169
 S         -4.8113863040        0.3517313900        1.0149896380
 O         -4.7835722679        1.6396137598        0.3621607158
 O         -5.4600707585        0.2974762678        2.3065121843
 C         -5.5482528831       -0.8639481310       -0.0564697059
 C         -5.5818451346       -2.1763952057        0.3723341293
 C         -6.1601856772       -3.1328883389       -0.4465856849
 C         -6.6948508968       -2.7626324914       -1.6717356298
 C         -6.6569049016       -1.4400776612       -2.0860049452
 C         -6.0787082345       -0.4784343796       -1.2719491359
 H         -6.0228780092        0.5608205284       -1.5547877106
 H         -7.0738870139       -1.1541092533       -3.0383009052
 H         -7.1443552047       -3.5093048901       -2.3071834874
 H         -6.1922787485       -4.1623197028       -0.1278273204
 H         -5.1601533970       -2.4225857181        1.3325613843
 H         -3.0138455280       -0.1711343218        2.2603943378
 H         -3.3489223110       -0.3100335299       -1.3463662775
 H         -1.5350165689        0.3699652000       -2.8796508056
 H          0.5943451637        1.2307347725       -1.9803778424
 H          1.2929403547        1.3357630278        1.7041981395
 C          1.4036409018        3.0913264293        0.5111492572
 C          0.5658612490        3.9272138382       -0.4039761428
 C          0.3285254432        3.9741039812        1.0738169964
 H          0.6162292972        4.8592057771        1.6206901822
 H         -0.5648153998        3.4950295772        1.4474215121
 H          1.0409878234        4.7686546780       -0.8844142736
 H         -0.1693029955        3.4352302967       -1.0207843285
 H          2.4265616601        3.4247941806        0.6548293541
