  62
        -98.93812608
 C         -1.8949099637        0.0057642613        0.7539396783
 C         -2.9382570593        0.9599440094        0.7169256332
 C         -4.2992999438        0.4339882150        0.5239029692
 C         -4.4810779637       -0.8921936829        0.4019439712
 C         -5.7756943881       -1.6482717224        0.2359004505
 C         -6.8115370712       -1.0733689523       -0.7404673855
 C         -6.2237048469       -0.3345248014       -1.9516446896
 H         -5.1505011156       -0.5212282915       -2.0194405555
 H         -6.6801193782       -0.7273585963       -2.8621628182
 C         -6.4792899702        1.1741737173       -1.9118718490
 H         -6.3811374869        1.5737328308       -2.9241502713
 H         -7.5093588064        1.3459263703       -1.5919247660
 C         -5.5369635091        1.9766401899       -1.0154788263
 H         -4.5378929319        2.0038213735       -1.4586340191
 H         -5.8999095663        3.0067141115       -0.9824221955
 C         -5.3921898649        1.4593186192        0.4250456420
 H         -5.0769704313        2.2975721392        1.0523172851
 H         -6.3372460245        1.0784876636        0.8043065213
 H         -7.4185011787       -1.9122445177       -1.0853137527
 H         -7.4817514548       -0.4011228344       -0.2064939284
 H         -5.4792550319       -2.6478354435       -0.0910506934
 H         -6.2352821302       -1.7560931474        1.2226796555
 O         -3.4450312519       -1.7776112434        0.4491682717
 C         -2.1338389203       -1.3604606311        0.6181497946
 O         -1.2987424452       -2.2846118840        0.6296340529
 O         -2.7421722971        2.1982206366        0.8433234667
 C         -0.4676231759        0.4866286098        0.9463973136
 C          0.3792811839        0.0504786223       -0.2227341057
 C         -0.0478887084        0.3726137386       -1.5096209101
 C          0.6708498584       -0.0313798263       -2.6165007288
 C          1.8418413996       -0.7542999970       -2.4651369649
 C          2.2832933391       -1.0722417314       -1.1876214551
 C          1.5569991837       -0.6638714467       -0.0754589937
 H          1.9177384790       -0.9409817201        0.9003078738
 N          3.4643658848       -1.8103595083       -1.0049076284
 S          4.5873486055       -1.3102277154        0.1280108120
 O          5.8094494081       -1.9854047368       -0.2497462829
 O          4.1075220501       -1.5631472657        1.4619062100
 C          4.7415389934        0.4425912518       -0.1606811823
 C          4.0807609992        1.3343745000        0.6586172472
 C          4.1514932408        2.6878896581        0.3681272521
 C          4.8756657093        3.1228642740       -0.7307284066
 C          5.5386668296        2.2138901691       -1.5415900167
 C          5.4689287812        0.8598625255       -1.2585704425
 H          5.9780397513        0.1224244829       -1.8577617340
 H          6.1050600256        2.5562554146       -2.3926126867
 H          4.9251685255        4.1768292373       -0.9544230723
 H          3.6385678067        3.3962934273        0.9990616911
 H          3.5303921997        0.9576907388        1.5047112612
 H          3.9198756224       -2.0837168563       -1.8634554402
 H          2.4015375997       -1.0799418763       -3.3287319860
 H          0.3203622651        0.2184855397       -3.6065268903
 H         -0.9638470872        0.9355893619       -1.6273556089
 H         -0.5287664607        1.5851187257        0.9391636820
 C          0.0628548878        0.0385297596        2.2910638059
 C          1.0811783234        0.8659039365        3.0146355589
 C         -0.3287532216        0.8032711932        3.5186212004
 H         -0.5325345073        0.2531471462        4.4250208798
 H         -0.9588753922        1.6700693623        3.3823683677
 H          1.8537334825        0.3586922936        3.5739695097
 H          1.4006254972        1.7836196915        2.5441091435
 H          0.1244792664       -1.0407248089        2.3797403007
