  62
        -98.94583191
 C          2.4779067396        1.1065243471       -0.0547909595
 C          3.0478314785        0.1899230079        0.8606148703
 C          3.5002143044       -1.0852289471        0.2961708482
 C          3.3567325652       -1.3194013296       -1.0211197653
 C          3.7736711681       -2.5692050010       -1.7474396750
 C          2.7297468909       -3.6931196949       -1.6904524636
 C          2.5980101340       -4.3892518194       -0.3352694206
 H          1.9985455877       -5.2878035830       -0.4937503725
 H          3.5831181439       -4.7088631069        0.0065351022
 C          1.9260020795       -3.5374939035        0.7512288045
 H          1.3863763603       -2.7084972666        0.2839312942
 H          1.1776932483       -4.1379306462        1.2749155587
 C          2.8863747019       -2.9853015945        1.8057377708
 H          3.3220619648       -3.8126958355        2.3701925267
 H          2.3112329713       -2.3697409737        2.5027625662
 C          4.0246176488       -2.1254295982        1.2396323528
 H          4.5088725906       -1.6082868893        2.0716183143
 H          4.7603106521       -2.7562819224        0.7420527927
 H          3.0142189262       -4.4418259746       -2.4334035146
 H          1.7589132523       -3.2847886847       -1.9831708692
 H          4.7217196348       -2.9294033493       -1.3473912018
 H          3.9191534691       -2.2878831548       -2.7924882412
 O          2.8093383755       -0.4110325140       -1.8700179328
 C          2.3157659026        0.8006625531       -1.4066387276
 O          1.7824501574        1.5030444084       -2.2852856933
 O          3.1633635508        0.4229792848        2.0953229212
 C          1.9120585352        2.4122676858        0.4799978396
 C          0.4085627800        2.3367046968        0.3742641425
 C         -0.3700681003        3.2239726652       -0.3550332889
 C         -1.7381896411        3.0328957972       -0.4569360552
 C         -2.3558412063        1.9610929969        0.1613934324
 C         -1.5856505660        1.0734874800        0.9019978781
 C         -0.2207886795        1.2717852932        1.0095170292
 H          0.3782576788        0.5721927377        1.5806454657
 N         -2.2067539487       -0.0395296798        1.5192249408
 S         -2.6902882939       -1.2326733277        0.4289424161
 O         -2.8024802312       -2.4455925581        1.2102861603
 O         -1.8095120078       -1.2880846391       -0.7170900192
 C         -4.3142205256       -0.6967724804       -0.0610438549
 C         -5.2990104604       -0.6469134630        0.9065849025
 C         -6.5669875197       -0.2185095674        0.5480358085
 C         -6.8267235696        0.1487232704       -0.7642735976
 C         -5.8273696717        0.0906769262       -1.7237773003
 C         -4.5559144074       -0.3356729932       -1.3715463812
 H         -3.7445728836       -0.3898212302       -2.0800078450
 H         -6.0306723009        0.3773924139       -2.7430295252
 H         -7.8140228667        0.4830086356       -1.0413935981
 H         -7.3467348601       -0.1710110494        1.2909322723
 H         -5.0525314717       -0.9456482453        1.9117375893
 H         -1.6150539544       -0.4696832077        2.2179346122
 H         -3.4193267190        1.8068019109        0.0780699076
 H         -2.3307200303        3.7266466491       -1.0334277747
 H          0.0960751935        4.0552311918       -0.8575574502
 H          2.1789592104        2.4291160397        1.5469348674
 C          2.5249975493        3.6167294249       -0.1975206108
 C          2.5014583285        4.9479590779        0.4907608573
 C          3.7905050998        4.1960843913        0.3573752680
 H          4.5346327775        4.5624124273       -0.3336468088
 H          4.2064704066        3.7306586204        1.2390886667
 H          2.3622044851        5.8353364188       -0.1075321968
 H          2.0420054270        4.9965239407        1.4663283395
 H          2.4177087365        3.5930469202       -1.2753838050
