  62
        -98.93413141
 C         -2.1297612865       -0.7642750790        0.2616712423
 C         -2.9620347420        0.0409627098        1.0753757558
 C         -3.9154403785        0.9358403111        0.3912435488
 C         -3.8955952876        0.9905149544       -0.9534143554
 C         -4.7970764023        1.7766703683       -1.8672555182
 C         -6.1939149219        1.1476104405       -1.9997451433
 C         -6.8124602454        0.6692542529       -0.6886115722
 H         -6.1464106697       -0.0589219133       -0.2218955077
 H         -7.7420383692        0.1476572972       -0.9311622640
 C         -7.1438533234        1.7702692381        0.3159956394
 H         -7.6516547324        1.2969258148        1.1602911212
 H         -7.8443887982        2.4728090519       -0.1408362215
 C         -5.9521197289        2.5597975259        0.8615471544
 H         -6.3066848589        3.1286535198        1.7261443205
 H         -5.5998599017        3.2890556194        0.1369130948
 C         -4.7903353093        1.7023308922        1.3539510456
 H         -5.1680099363        0.9649743720        2.0717255779
 H         -4.1072994099        2.3386370958        1.9304118440
 H         -6.1123763413        0.2829677482       -2.6629229299
 H         -6.8558745529        1.8745583537       -2.4730870256
 H         -4.3218920935        1.7788077979       -2.8506700431
 H         -4.8654662179        2.8068037652       -1.5303527742
 O         -3.0190106265        0.2565435620       -1.6952181221
 C         -2.1215773897       -0.6328128434       -1.1272522852
 O         -1.3933934690       -1.2136649597       -1.9521306234
 O         -2.9195404200        0.0143570416        2.3360322360
 C         -1.1783638644       -1.7228132259        0.9529294034
 C          0.2143548063       -1.5869022683        0.3899763373
 C          0.9446742772       -2.6467082576       -0.1296678702
 C          2.2279042785       -2.4463970448       -0.6087331351
 C          2.8100146867       -1.1932404000       -0.5796195453
 C          2.0891388573       -0.1251164663       -0.0614825707
 C          0.8080668135       -0.3300080114        0.4227501211
 H          0.2481547764        0.5051638629        0.8289408591
 N          2.6830214269        1.1564111548       -0.0302762849
 S          4.0079827032        1.3153126978        0.9983385935
 O          3.8931259198        0.4331882907        2.1381173839
 O          4.0990338278        2.7297588632        1.2892113424
 C          5.3956599852        0.8317485910       -0.0052597730
 C          6.1196174474       -0.2971329739        0.3250796230
 C          7.1967357839       -0.6577665561       -0.4694475144
 C          7.5287265988        0.1128451049       -1.5733691805
 C          6.7929243004        1.2453985014       -1.8895786689
 C          5.7154014276        1.6121252468       -1.0990936129
 H          5.1213610745        2.4869665347       -1.3047943423
 H          7.0548329467        1.8424516732       -2.7482102782
 H          8.3665940550       -0.1702972173       -2.1907220541
 H          7.7701497741       -1.5374824990       -0.2252400615
 H          5.8206343171       -0.8667659998        1.1902374887
 H          2.0201981987        1.8917070305        0.1728269111
 H          3.8042848449       -1.0318847788       -0.9629008481
 H          2.7799360342       -3.2790833421       -1.0169836004
 H          0.5031985267       -3.6282892920       -0.1780117827
 H         -1.1482862697       -1.3681488118        1.9978508096
 C         -1.6737170287       -3.1608717713        1.0019696727
 C         -3.1365868481       -3.4786557518        0.9282034748
 C         -2.2301169967       -3.8578820286       -0.2021336452
 H         -1.9980910819       -4.9036133724       -0.3414787103
 H         -2.2868844078       -3.2960748927       -1.1210063546
 H         -3.5240805886       -4.2594528846        1.5653446065
 H         -3.8213975026       -2.6559735228        0.7809230966
 H         -1.0886074433       -3.7657039567        1.6880844747
