  62
        -98.93650335
 C         -2.2529015897       -0.6693846003       -0.3360378003
 C         -3.2874972500       -0.7479581999        0.6335606395
 C         -4.0483074300        0.4820900202        0.8838696789
 C         -3.7219979598        1.6011135599        0.2126044886
 C         -4.4475849598        2.9101862500        0.3199307180
 C         -5.5701921296        3.0090488297       -0.7226135123
 C         -6.4834400696        1.7838481697       -0.7658375821
 H         -5.9084879495        0.9223281296       -1.1133047117
 H         -7.2537658894        1.9788330795       -1.5151168823
 C         -7.1490426399        1.4401867701        0.5740645879
 H         -8.2034944199        1.2200079301        0.3947862477
 H         -7.1070974000        2.3022978804        1.2406227076
 C         -6.5546179101        0.2221944704        1.2837841484
 H         -6.5097193000       -0.6209579799        0.5897938387
 H         -7.2282981003       -0.0598266994        2.0972576283
 C         -5.1604552902        0.4190365105        1.8924691587
 H         -4.9459061504       -0.4504178793        2.5206290290
 H         -5.1572848304        1.3090003507        2.5250752584
 H         -5.1168477393        3.1324918994       -1.7088628622
 H         -6.1634381496        3.8995515098       -0.5074570827
 H         -3.7321016098        3.7159490099        0.1479069279
 H         -4.8587039800        3.0097769703        1.3225928379
 O         -2.7088101196        1.6492913696       -0.6868066912
 C         -1.9505434496        0.5247551295       -0.9910691306
 O         -1.0628512994        0.7427215792       -1.8376574105
 O         -3.5665140501       -1.8081303997        1.2546571897
 C         -1.4955661597       -1.9544357804       -0.6222098497
 C         -0.2238649699       -2.0437481101        0.1817867306
 C          0.0601060699       -3.1661564599        0.9499954010
 C          1.2438319697       -3.2501411197        1.6631353013
 C          2.1660812598       -2.2198998597        1.6257191812
 C          1.8895531700       -1.0923014100        0.8630778108
 C          0.7024714501       -1.0103024602        0.1500932105
 H          0.4954758803       -0.1362807204       -0.4505440099
 N          2.8189452700       -0.0270256200        0.8176396206
 S          4.3446911901       -0.4461799302        0.2150778811
 O          4.2122585004       -1.0551977506       -1.0908942087
 O          5.0237880699       -1.2356231699        1.2107471015
 C          5.1132441302        1.1544634297        0.0809667308
 C          5.0710625805        1.8239563693       -1.1268847894
 C          5.6496085205        3.0802645193       -1.2167792897
 C          6.2529874403        3.6433669996       -0.1023538498
 C          6.2855831500        2.9591106600        1.1036868705
 C          5.7104346900        1.7020999301        1.2000377007
 H          5.7191379697        1.1297282104        2.1126942909
 H          6.7569145598        3.4003261303        1.9670150904
 H          6.7025529403        4.6210093896       -0.1758961500
 H          5.6269316308        3.6132261190       -2.1537312899
 H          4.5985948007        1.3451763091       -1.9700746394
 H          2.4539836401        0.7347893598        0.2585160403
 H          3.0986554096       -2.2802023496        2.1623372214
 H          1.4524051596       -4.1288603795        2.2545807016
 H         -0.6570610901       -3.9730968199        0.9915186011
 H         -2.1647318898       -2.7534055602       -0.2655457496
 C         -1.2672884794       -2.1886971109       -2.1105185496
 C          0.0754666108       -2.1543952011       -2.7710955993
 C         -0.6294361093       -3.4620692510       -2.5818157690
 H         -1.0416177391       -3.9617017513       -3.4452749290
 H         -0.2398820595       -4.1293050308       -1.8274906387
 H          0.1311943910       -1.7309426414       -3.7625692494
 H          0.9488738706       -1.9529604709       -2.1697388592
 H         -2.0949420892       -1.8149178810       -2.7055932299
