  62
        -98.93993918
 C         -2.7195123514       -0.6733636675        0.1668081030
 C         -2.7979535109        0.3592381443        1.1314681740
 C         -3.2378269106        1.6675673281        0.6354915863
 C         -3.5492003191        1.8171192722       -0.6652145030
 C         -4.0357380500        3.0826013641       -1.3179460903
 C         -2.9117098085        4.0397758178       -1.7380077217
 C         -2.2100460559        4.7633945453       -0.5879920376
 H         -1.5997679995        5.5527151914       -1.0310132677
 H         -2.9557756886        5.2449323392        0.0451965615
 C         -1.3074399428        3.8643733723        0.2687649867
 H         -1.0978599081        2.9386912386       -0.2729686198
 H         -0.3493637594        4.3619945401        0.4351166622
 C         -1.8826065390        3.5164031339        1.6420793851
 H         -1.9762700916        4.4248100079        2.2410720474
 H         -1.1807337976        2.8498789872        2.1505340019
 C         -3.2485064965        2.8182716236        1.5963204720
 H         -3.4641030996        2.4199013459        2.5907951980
 H         -4.0274409299        3.5316374538        1.3287274109
 H         -3.3534304675        4.7913666141       -2.3962122671
 H         -2.1759959114        3.4795571228       -2.3197473071
 H         -4.7246463179        3.5987178090       -0.6487969209
 H         -4.5818816247        2.7792063913       -2.2136331901
 O         -3.4686118926        0.7968717128       -1.5597549359
 C         -3.0229175529       -0.4611154317       -1.1783963500
 O         -2.9509317987       -1.2822786154       -2.1112488636
 O         -2.5074015371        0.1966224807        2.3481923305
 C         -2.2348928774       -2.0445271460        0.6019248094
 C         -0.9137222626       -2.3520001280       -0.0613131558
 C         -0.6519207171       -3.5289240826       -0.7483569188
 C          0.5870162810       -3.7373446565       -1.3310421395
 C          1.5869387375       -2.7870812452       -1.2422296046
 C          1.3407720761       -1.6104062223       -0.5450232939
 C          0.1012160129       -1.4074606009        0.0416804180
 H         -0.0911849847       -0.4916318738        0.5882764665
 N          2.3413900588       -0.6163923268       -0.4575587101
 S          3.8332717951       -1.0784573582        0.1919538387
 O          4.4627713861       -2.0081805583       -0.7095666387
 O          3.6644804514       -1.5333581115        1.5559589189
 C          4.6965886984        0.4787052343        0.1598645564
 C          5.2324915286        0.9089635724       -1.0388531941
 C          5.8802405917        2.1331440329       -1.0809339761
 C          5.9795424086        2.9023151701        0.0691820897
 C          5.4373866264        2.4563116617        1.2650101996
 C          4.7870514044        1.2331079005        1.3136767607
 H          4.3571370194        0.8437926689        2.2228824242
 H          5.5177062457        3.0552777633        2.1578937885
 H          6.4845685460        3.8546943829        0.0342109171
 H          6.3048340382        2.4829891019       -2.0080293075
 H          5.1371245897        0.2745458658       -1.9044134728
 H          2.0069441848        0.1855943944        0.0620652802
 H          2.5543759749       -2.9461715039       -1.6889821039
 H          0.7756680714       -4.6549081865       -1.8678308447
 H         -1.4177947289       -4.2819330079       -0.8340257798
 H         -2.0543906190       -1.9586231974        1.6843639921
 C         -3.2986846623       -3.0952638761        0.3699092133
 C         -3.3311914179       -4.3306530212        1.2176792715
 C         -4.3763666432       -3.2719041031        1.3958277136
 H         -5.3814175737       -3.4748421471        1.0578947145
 H         -4.3299492140       -2.6489242362        2.2772704491
 H         -3.6211689281       -5.2638419143        0.7589881034
 H         -2.5757601965       -4.4314715352        1.9824368462
 H         -3.5825536037       -3.1796215097       -0.6727906286
