  62
        -98.94413825
 C          1.7158118376        1.4489570391        0.2082176202
 C          2.0189242517        0.6920195027       -0.9495021173
 C          2.9030393878       -0.4682262631       -0.7515199453
 C          3.3224847250       -0.7828511411        0.4868315462
 C          4.1852397042       -1.9613205324        0.8315200362
 C          3.3492398892       -3.2085203239        1.1513908417
 C          2.2818117251       -3.5286738988        0.1051315466
 H          1.7837187892       -4.4487939228        0.4179002244
 H          1.5255065014       -2.7418874416        0.1083025206
 C          2.8174392379       -3.6958864694       -1.3229370769
 H          3.8933100363       -3.8733012961       -1.3008599367
 H          2.3523913708       -4.5764232449       -1.7712382941
 C          2.5173236081       -2.5148571990       -2.2477209902
 H          1.4506500750       -2.2776609686       -2.2024806081
 H          2.7357332518       -2.8226102987       -3.2740491444
 C          3.3175960434       -1.2342008430       -1.9772510634
 H          4.3823995854       -1.4733650540       -1.9340091195
 H          3.1533298428       -0.5586894268       -2.8221006717
 H          4.0272081603       -4.0580251324        1.2509188037
 H          2.8526293444       -3.0585395613        2.1127191588
 H          4.8548305629       -2.1667511572       -0.0017722127
 H          4.7816421261       -1.7021143667        1.7079899719
 O          2.9708949063       -0.0653727985        1.5833115547
 C          2.1865854265        1.0705760774        1.4712342676
 O          1.9778168740        1.6519975959        2.5525091797
 H         -0.4895175034        1.2603095798       -1.6306082653
 C         -1.1289035007        1.5654161325       -0.8153402475
 C         -0.6048196478        2.3465160112        0.2040666387
 C         -1.4407684767        2.7225277930        1.2485088418
 C         -2.7664865286        2.3231327529        1.2700217606
 C         -3.2763340552        1.5165694707        0.2680476019
 C         -2.4432160754        1.1286741712       -0.7729693676
 N         -2.9187917873        0.2160111152       -1.7380103827
 S         -3.4640737080       -1.2341662460       -1.0867554624
 O         -3.0625168090       -2.2640626246       -2.0195276351
 O         -4.8816120076       -1.1348460111       -0.8414990131
 C         -2.6126616433       -1.4106724536        0.4761291505
 C         -3.3543032672       -1.5139901701        1.6352223717
 C         -2.6958101215       -1.5850375307        2.8522163460
 C         -1.3116610112       -1.5336800267        2.8902337882
 C         -0.5797950501       -1.4331083710        1.7173293990
 C         -1.2316168098       -1.3791487328        0.4964815323
 H         -0.6802213727       -1.3012788667       -0.4283772853
 H          0.4970051369       -1.3760651374        1.7546477344
 H         -0.7931862213       -1.5652529934        3.8354229645
 H         -3.2618080293       -1.6668641505        3.7659568686
 H         -4.4293710303       -1.5276281746        1.5596749058
 H         -2.2388970527        0.0317768268       -2.4633249879
 H         -4.2953160631        1.1639678676        0.2842910510
 H         -3.4047182415        2.6264491496        2.0854090886
 H         -1.0394526670        3.3136775342        2.0582167584
 C          0.8603526428        2.7097531720        0.1952170757
 H          1.0828621856        3.2283333293        1.1369027608
 C          1.1858094181        3.6437843887       -0.9538866314
 C          0.8296030071        5.0934602931       -0.8318858578
 C          2.2657472342        4.6673242756       -0.7832113536
 H          2.9018099204        4.8900510929       -1.6267321211
 H          2.7762683644        4.7018453764        0.1684252890
 H          0.3673535425        5.4200552330        0.0872956637
 H          0.4761367887        5.6120242828       -1.7098162295
 H          1.0900750696        3.1819652635       -1.9274972024
 O          1.5901948044        0.9471385891       -2.1083296545
