  62
        -98.94036024
 C         -2.2516728302       -0.6077062559       -0.2561611229
 C         -3.1571048187       -0.8173863234        0.8181287277
 C         -4.1781717968        0.2141697186        1.0238828999
 C         -4.1952134976        1.2991907821        0.2294419416
 C         -5.1586257175        2.4511674774        0.3210456602
 C         -6.4927132185        2.2069380415       -0.3977310569
 C         -7.4325804493        1.2178183268        0.2928214710
 H         -7.5624767353        1.5093565172        1.3354468566
 H         -8.4054901972        1.3078567349       -0.1944030335
 C         -6.9773432340       -0.2463562191        0.2182266067
 H         -6.2248692535       -0.3542332439       -0.5665387679
 H         -7.8239702787       -0.8769311185       -0.0624526817
 C         -6.4120600074       -0.8026148069        1.5252122550
 H         -7.1968776572       -0.8226494144        2.2844458564
 H         -6.0881702221       -1.8312434433        1.3478090623
 C         -5.2154376918       -0.0189661121        2.0804428091
 H         -5.5489667817        0.9293368635        2.5011774112
 H         -4.7541223086       -0.6125859313        2.8732345218
 H         -6.2841241276        1.8633833925       -1.4136832343
 H         -7.0035502568        3.1697877412       -0.4714284003
 H         -5.3464187859        2.6888534507        1.3684888104
 H         -4.6666108908        3.3062876411       -0.1475468092
 O         -3.2922364593        1.4829131109       -0.7685857610
 C         -2.3137961204        0.5360188405       -1.0526740979
 O         -1.5873665445        0.8530942178       -2.0147710623
 H          0.2536971316        0.5513711322       -0.7070692361
 C          0.7276331469       -0.1843269828       -0.0730979859
 C          0.0945650521       -1.3991663624        0.1519686963
 C          0.7264965039       -2.3367793787        0.9601600158
 C          1.9622543603       -2.0659473190        1.5219161599
 C          2.5952144404       -0.8592229096        1.2823991956
 C          1.9698389600        0.0850021827        0.4791850679
 N          2.6306511919        1.3077326591        0.2069768643
 S          3.9210576542        1.1350780807       -0.8682542972
 O          4.1581174673        2.4542959808       -1.4117311033
 O          3.6644323874        0.0817463952       -1.8247544308
 C          5.2804479967        0.6785139337        0.1857655968
 C          5.7228834996        1.5994933598        1.1154951320
 C          6.7766207579        1.2558539411        1.9472415725
 C          7.3666850728        0.0054141720        1.8347097803
 C          6.9120327199       -0.9065794556        0.8944073836
 C          5.8578945991       -0.5695968054        0.0595319008
 H          5.4666744486       -1.2460892304       -0.6831497283
 H          7.3720439894       -1.8778313467        0.8085838856
 H          8.1863481943       -0.2596703154        2.4837295106
 H          7.1335910595        1.9622326463        2.6792778579
 H          5.2381766519        2.5603527999        1.1644045272
 H          2.0005496733        2.0038308277       -0.1699850265
 H          3.5579438095       -0.6405900629        1.7146699173
 H          2.4391521181       -2.8027232428        2.1497037099
 H          0.2372702790       -3.2805582674        1.1520018996
 C         -1.2290154692       -1.7035195863       -0.5000046490
 H         -1.6489722877       -2.5875204207        0.0057909507
 C         -1.0798525386       -2.0570424200       -1.9750355476
 C          0.1418678131       -1.7694152940       -2.7909962174
 C         -0.1753003794       -3.1782618816       -2.3936226378
 H         -0.5183174150       -3.8675346702       -3.1501653633
 H          0.4425298692       -3.6274085134       -1.6307074642
 H         -0.0067221940       -1.4713451345       -3.8182403128
 H          0.9840540369       -1.2794268162       -2.3257706338
 H         -2.0263585484       -1.9780467078       -2.5015415838
 O         -3.1141019024       -1.8292316128        1.5664901956
