  62
        -98.93918047
 C         -2.7355938643       -1.0495489456       -0.2365575607
 C         -2.4502404854        0.0933722833       -1.0220855797
 C         -3.3712018841        1.2296765035       -0.8631324397
 C         -4.4176565258        1.1274159323       -0.0248706161
 C         -5.3967296808        2.2259295220        0.2688775692
 C         -4.9480389303        3.0630141480        1.4749896771
 C         -3.4906655970        3.5190506214        1.4031196575
 H         -2.8395937054        2.6437636757        1.4652467489
 H         -3.2964537493        4.1261603746        2.2899589224
 C         -3.1384028174        4.3248586106        0.1448797581
 H         -2.5408968051        5.1899722657        0.4398058180
 H         -4.0496217616        4.7036450072       -0.3193761262
 C         -2.3227404398        3.5542421519       -0.8949907980
 H         -1.4576535997        3.0923548476       -0.4120772031
 H         -1.9447104041        4.2708573641       -1.6289688275
 C         -3.0823672607        2.4671926975       -1.6660896170
 H         -2.4492256344        2.1445959110       -2.4977044748
 H         -4.0037333645        2.8831307776       -2.0782426168
 H         -5.0741966479        2.4628507365        2.3790706479
 H         -5.6008292264        3.9344179129        1.5518970623
 H         -5.4979359991        2.8601433843       -0.6096297734
 H         -6.3640769762        1.7728322319        0.4920885380
 O         -4.6762028155        0.0065771713        0.6947806288
 C         -3.8434040188       -1.0942608635        0.6176665948
 O         -4.1931890050       -2.0479130057        1.3414337120
 H          0.2310855476       -0.6959719792       -0.7857586735
 C          0.3760520756       -1.2574194880        0.1255871553
 C         -0.6200736291       -2.1247381566        0.5509722006
 C         -0.4277034544       -2.8236264432        1.7369330680
 C          0.7312588123       -2.6542209006        2.4742619681
 C          1.7181983322       -1.7818108902        2.0510656501
 C          1.5346864434       -1.0772221421        0.8683409789
 N          2.5107644793       -0.1508114462        0.4352895579
 S          4.0613972905       -0.7313091602        0.1021964743
 O          4.0590471342       -1.4909061366       -1.1309624948
 O          4.5635910690       -1.4156534661        1.2655580378
 C          4.9363131131        0.8028936479       -0.1272457348
 C          5.3087615618        1.5204202794        0.9930661153
 C          5.9634953069        2.7300330254        0.8262630341
 C          6.2327287071        3.1994981130       -0.4509353925
 C          5.8536660110        2.4673111602       -1.5656626050
 C          5.1970941736        1.2570331068       -1.4052484940
 H          4.8907915697        0.6514560631       -2.2432635217
 H          6.0660848106        2.8335391064       -2.5572685862
 H          6.7428569721        4.1412268614       -0.5785527291
 H          6.2614209706        3.3020061963        1.6902334123
 H          5.0859027390        1.1134267814        1.9653902010
 H          2.1856570653        0.3470130706       -0.3847753629
 H          2.6276755316       -1.6514810697        2.6135571811
 H          0.8665658709       -3.2048656081        3.3930611318
 H         -1.2002490668       -3.4949578036        2.0841002875
 C         -1.8833177007       -2.3101608326       -0.2567032828
 H         -2.4869662658       -3.0795929216        0.2427870507
 C         -1.5718502577       -2.7892679095       -1.6616819995
 C         -1.1939815491       -4.2233527688       -1.8714397424
 C         -2.5240358417       -3.7209121240       -2.3458987546
 H         -2.6851939905       -3.6047513885       -3.4071152055
 H         -3.4068734707       -4.0220069975       -1.8005442518
 H         -1.1753737057       -4.8672474875       -1.0049644139
 H         -0.4370810750       -4.4543269913       -2.6054536321
 H         -1.0814938118       -2.0454348585       -2.2753976915
 O         -1.4826098714        0.1888711405       -1.8250246768
