  62
        -98.93412991
 C         -2.4409751064       -1.1618050358        0.0253183599
 C         -2.6092938535        0.0604217155       -0.6631200199
 C         -3.9915244346        0.5677942043       -0.7864103688
 C         -4.9970225317       -0.1544062126       -0.2578187878
 C         -6.4640773318        0.1814729965       -0.2221219762
 C         -6.7997228218        1.2471153387        0.8345871400
 C         -5.8291914363        2.4240838679        0.8933924902
 H         -4.8204040577        2.0490620730        1.0764336672
 H         -6.1064580142        3.0401895746        1.7528917460
 C         -5.8197519647        3.3226461255       -0.3409216657
 H         -5.1446704192        4.1559906905       -0.1302197429
 H         -6.8200077063        3.7350471960       -0.4913457639
 C         -5.3667044746        2.6630459384       -1.6447948825
 H         -5.1873108983        3.4631662867       -2.3689972991
 H         -6.1532511687        2.0403347556       -2.0622584164
 C         -4.0657735382        1.8724615725       -1.5425513564
 H         -3.2888334228        2.5126698933       -1.1091035610
 H         -3.7160189863        1.6448300179       -2.5570095066
 H         -6.7934332722        0.7629486574        1.8141519544
 H         -7.8099450716        1.6140246587        0.6460806526
 H         -6.7993668423        0.4912594034       -1.2073372205
 H         -6.9908128046       -0.7402446103        0.0343557333
 O         -4.7844906538       -1.3346330210        0.3933169480
 C         -3.5208075711       -1.8644703367        0.5568926800
 O         -3.4862888344       -2.9428900375        1.1845011050
 H          1.4684134616       -0.8311941646       -0.4946556239
 C          1.0935717782       -0.4067913513        0.4212945578
 C         -0.1564396131       -0.7567505146        0.9045611061
 C         -0.5963553048       -0.1820351818        2.0949466259
 C          0.1916248244        0.7256267333        2.7747181920
 C          1.4411603099        1.0708307278        2.2900347736
 C          1.8899030712        0.5033707422        1.1038071107
 N          3.1400026886        0.8582381332        0.5728557754
 S          4.0281275404       -0.2926197084       -0.2822143103
 O          3.5445581275       -0.3533480055       -1.6383384357
 O          4.0530471235       -1.5421861867        0.4447453760
 C          5.6395488731        0.4714982016       -0.2552099438
 C          5.8967092842        1.5015028807       -1.1405838084
 C          7.1360423051        2.1204018326       -1.1061790043
 C          8.0923591180        1.7018922320       -0.1925985229
 C          7.8208045342        0.6654127378        0.6876701838
 C          6.5824600360        0.0431182629        0.6598131156
 H          6.3289139635       -0.7712153120        1.3193220084
 H          8.5675544384        0.3399659683        1.3938881042
 H          9.0563681399        2.1850181504       -0.1688423677
 H          7.3518249868        2.9246155580       -1.7909677219
 H          5.1262693786        1.7859979032       -1.8383164086
 H          3.7179505954        1.3667677456        1.2277797070
 H          2.0579270607        1.7800717941        2.8207635298
 H         -0.1658941452        1.1642927734        3.6943585348
 H         -1.5708746491       -0.4575655797        2.4763299133
 C         -1.0527614190       -1.7481834360        0.2031039876
 H         -1.1728599008       -2.6218696882        0.8614453545
 C         -0.5081259901       -2.2178783858       -1.1292568975
 C          0.5095558491       -3.3160844267       -1.1811128775
 C         -0.8937313090       -3.5718823292       -1.6406688037
 H         -1.0771818610       -3.6911043467       -2.6978959167
 H         -1.5364329372       -4.1730717399       -1.0138334305
 H          0.8273243444       -3.7473315378       -0.2434374312
 H          1.2957972165       -3.2539205522       -1.9190571067
 H         -0.4254473520       -1.4142460783       -1.8529260510
 O         -1.6511308975        0.7148663521       -1.1531033734
