  62
        -98.94620208
 C          1.2160767071        1.4842387801        0.6262163048
 C          2.2402418970        1.3635988918       -0.3456806892
 C          3.2481297064        0.3260855780       -0.0857118710
 C          3.1726610597       -0.4255475028        1.0263417449
 C          4.1510851963       -1.4898384519        1.4462157526
 C          3.9202271990       -2.8647040022        0.8036825280
 C          4.2548342746       -2.9569195079       -0.6853437379
 H          5.2703158812       -2.5956746743       -0.8504432299
 H          4.2410177305       -4.0158238309       -0.9512020807
 C          3.2818891029       -2.2014476370       -1.6017899730
 H          2.3647708613       -1.9712017693       -1.0552358314
 H          3.0031388784       -2.8388293602       -2.4435611741
 C          3.8445194025       -0.9044329758       -2.1824715182
 H          4.6879421287       -1.1295946874       -2.8390095120
 H          3.0648122593       -0.4307658696       -2.7841634332
 C          4.3058637829        0.1063317140       -1.1247271496
 H          5.2326589472       -0.2298220153       -0.6602284413
 H          4.4888730411        1.0629979885       -1.6198246623
 H          2.8800632942       -3.1561015163        0.9604083586
 H          4.5484216369       -3.5800652941        1.3398110886
 H          5.1654674493       -1.1537014340        1.2279796095
 H          4.0482156519       -1.5953208556        2.5287191965
 O          2.1803838435       -0.2692049918        1.9441672757
 C          1.1795237818        0.6706820298        1.7611791685
 O          0.3290191796        0.6898802871        2.6749323188
 H         -2.1576628939        1.0760856725        0.8604326343
 C         -1.9868538725        1.2795161759       -0.1862033899
 C         -0.8794880596        2.0240928857       -0.5724544881
 C         -0.6875764552        2.2847333409       -1.9248378614
 C         -1.5861095465        1.8074330106       -2.8617868470
 C         -2.6843943217        1.0607435360       -2.4747469969
 C         -2.8860170619        0.7943461249       -1.1251748875
 N         -4.0042523099        0.0576993184       -0.7060465114
 S         -3.8962107008       -1.0202835640        0.5647129225
 O         -5.0522384272       -1.8750363626        0.3976257990
 O         -3.8129782091       -0.3105697206        1.8149815047
 C         -2.4131476352       -1.9622604118        0.2620310143
 C         -1.2996560454       -1.7870783445        1.0557873034
 C         -0.1616048743       -2.5299324462        0.7826190212
 C         -0.1520582171       -3.4244548762       -0.2752402650
 C         -1.2807903400       -3.5883683702       -1.0646909443
 C         -2.4222512717       -2.8527782325       -0.7949694596
 H         -3.3245133674       -2.9680326898       -1.3733449857
 H         -1.2715994486       -4.2873117293       -1.8853420112
 H          0.7372536855       -3.9987807216       -0.4840959665
 H          0.7088273898       -2.3912394846        1.4053285884
 H         -1.3221072293       -1.0789604071        1.8697449074
 H         -4.5733048458       -0.3081798415       -1.4552297811
 H         -3.3848880636        0.6905246545       -3.2075709399
 H         -1.4263217317        2.0159418623       -3.9087566436
 H          0.1806877143        2.8397200235       -2.2394296047
 C          0.0866089829        2.4944946287        0.4890302228
 H         -0.4449529419        2.4782684973        1.4504309661
 C          0.5925933619        3.9021133101        0.2453938390
 C         -0.3367890808        5.0552973870        0.4695147398
 C          0.8019908506        4.8152894608        1.4138174435
 H          1.6420024852        5.4934585057        1.3937214294
 H          0.5771161720        4.4296211646        2.3980135987
 H         -1.3355361346        4.8305163039        0.8135727152
 H         -0.2815213109        5.9008928237       -0.1986125981
 H          1.3016956898        3.9744640182       -0.5683252909
 O          2.3355179266        2.0812006226       -1.3738736974
