  62
        -98.92976061
 C         -2.2174963254       -0.0281089680        0.4781821518
 C         -3.4458200080       -0.1848025446        1.1687661785
 C         -4.6530007403        0.2669262605        0.4648284266
 C         -4.5375148217        0.8422358854       -0.7451206763
 C         -5.6523643742        1.4116110891       -1.5824770148
 C         -6.6995330885        0.4066790258       -2.1001741434
 C         -7.9379428993        0.2657371842       -1.2062481510
 H         -8.0525233126        1.1776089379       -0.6189997262
 H         -8.8223959709        0.1890415419       -1.8418863231
 C         -7.9529499626       -0.9485430743       -0.2727677163
 H         -8.7434628448       -0.7939841647        0.4647477897
 H         -8.2115237316       -1.8393017189       -0.8498547208
 C         -6.6438525552       -1.2424724143        0.4599942551
 H         -5.9280757976       -1.6912945510       -0.2331994077
 H         -6.8425268131       -1.9944455095        1.2263091447
 C         -5.9800097903       -0.0121033241        1.1083950592
 H         -6.6309225810        0.8580874488        1.0391047898
 H         -5.7786617807       -0.2095562256        2.1632158876
 H         -7.0249702709        0.7665989734       -3.0775043531
 H         -6.2275428695       -0.5632665432       -2.2549270577
 H         -6.1547006593        2.1944448908       -1.0096145937
 H         -5.1609634867        1.8852546756       -2.4347502404
 O         -3.3331401953        1.0235080891       -1.3518944237
 C         -2.1475441246        0.5897675872       -0.7711138996
 O         -1.1375975228        0.8251013377       -1.4596298443
 O         -3.5284219646       -0.6694834266        2.3289338272
 C         -0.9573184942       -0.5078196228        1.1736520339
 C          0.1347845709        0.5269456298        1.0797578639
 C         -0.0794511143        1.7784159443        1.6532730167
 C          0.8954568756        2.7548970990        1.6050210008
 C          2.1161025729        2.4976104760        1.0053757282
 C          2.3376515046        1.2550279602        0.4256724413
 C          1.3484367044        0.2816435088        0.4596781047
 H          1.5432176068       -0.6636475682       -0.0188261913
 N          3.5561453276        0.9639209723       -0.2075307526
 S          4.1694943020       -0.6017561336       -0.0685817140
 O          3.6316920958       -1.4176208403       -1.1280733720
 O          3.9713474079       -1.0926683173        1.2769493243
 C          5.9030238173       -0.3001591566       -0.3630854078
 C          6.3518692345       -0.2058893654       -1.6669639153
 C          7.6925086351        0.0603904642       -1.8959523359
 C          8.5569262329        0.2278438858       -0.8241405626
 C          8.0922897271        0.1287933417        0.4787472242
 C          6.7524922840       -0.1361856243        0.7149414210
 H          6.3479742776       -0.2309641617        1.7098436650
 H          8.7672406910        0.2560547964        1.3097070543
 H          9.5999235677        0.4339789897       -1.0056168266
 H          8.0578659979        0.1353628924       -2.9074549434
 H          5.6446827002       -0.3517496260       -2.4669638127
 H          4.2648490503        1.6665224182       -0.0484102828
 H          2.8835019923        3.2562447293        0.9753202539
 H          0.7104571751        3.7216867099        2.0488885527
 H         -1.0294947483        1.9753579093        2.1321346310
 H         -1.2469391820       -0.5914880890        2.2355681274
 C         -0.4994157069       -1.8931866888        0.7431715679
 C         -1.4809645230       -2.9278605451        0.2834505875
 C         -0.5101660540       -2.3316479106       -0.6891964480
 H          0.3116271330       -2.9383500296       -1.0422589010
 H         -0.8757423786       -1.6304523298       -1.4231905455
 H         -1.3346713563       -3.9499999248        0.5985893017
 H         -2.5184887370       -2.6350206076        0.2129837007
 H          0.3278670988       -2.2510836856        1.3505389383
