  62
        -98.94541935
 C         -2.5283666635       -0.3952288728        0.1041542837
 C         -2.4363339291        0.5496839337        1.1607107535
 C         -2.3343377886        1.9579986594        0.7731702963
 C         -2.3573157983        2.2900879503       -0.5297432672
 C         -2.2354385379        3.6794911604       -1.0925740507
 C         -0.7803596559        4.1491021486       -1.2329414214
 C         -0.0887135735        4.5187254792        0.0801842171
 H          0.8252882643        5.0555019967       -0.1818089020
 H         -0.7216772496        5.2050833419        0.6443859202
 C          0.2844363408        3.3142483475        0.9560291932
 H          0.2760593903        2.4081297376        0.3440087905
 H          1.3066221861        3.4384696591        1.3228082695
 C         -0.6135716098        3.1141648380        2.1779271910
 H         -0.2934762063        2.2047192544        2.6927870217
 H         -0.4872146875        3.9545208291        2.8645807982
 C         -2.1062157392        2.9706908856        1.8544102716
 H         -2.6189277578        2.6184554191        2.7529690861
 H         -2.5244930923        3.9347099387        1.5663386618
 H         -0.2069526446        3.3629419976       -1.7321829908
 H         -0.7803817882        5.0279680844       -1.8824752703
 H         -2.6888471008        3.6563474984       -2.0859548509
 H         -2.7911316252        4.3825664585       -0.4712200285
 O         -2.5091258646        1.3655731849       -1.5109155222
 C         -2.5306412441        0.0072392381       -1.2312179261
 O         -2.5729428181       -0.7033673113       -2.2588868943
 O         -2.4322952228        0.2217008714        2.3773309056
 C         -2.4616424260       -1.8580455886        0.5201359019
 C         -0.9984968226       -2.2311393137        0.5689961685
 C         -0.3815791982       -2.6357573932        1.7464192400
 C          0.9879292099       -2.8358316411        1.7941719306
 C          1.7728922197       -2.5995265982        0.6788159877
 C          1.1609256968       -2.2025029941       -0.5020211056
 C         -0.2133568155       -2.0556166704       -0.5620588028
 H         -0.6712677592       -1.7350679245       -1.4866863531
 N          1.9715134280       -1.8322367755       -1.6144017998
 S          2.2831357041       -0.1691703954       -1.5434404565
 O          1.0976454542        0.5856564796       -1.1997054448
 O          2.9078462402        0.1713851473       -2.8036864947
 C          3.4711573069       -0.0769261496       -0.2245030825
 C          3.0579179582        0.3158385400        1.0329399726
 C          3.9835897831        0.3360534599        2.0645177157
 C          5.2964058211       -0.0384482264        1.8212920229
 C          5.6950485781       -0.4305267848        0.5518183570
 C          4.7746953316       -0.4530718759       -0.4837853082
 H          5.0365447737       -0.7464273814       -1.4868181130
 H          6.7168241085       -0.7204694060        0.3672678515
 H          6.0129535379       -0.0239297116        2.6273107020
 H          3.6732993569        0.6391939757        3.0515521004
 H          2.0259317090        0.5953122476        1.1777667524
 H          1.5107151783       -2.0148683768       -2.4972170001
 H          2.8443416228       -2.7112919055        0.7133368611
 H          1.4519416121       -3.1490410736        2.7165282839
 H         -0.9798224982       -2.7615765013        2.6366914166
 H         -2.8527925605       -1.8928181860        1.5459647866
 C         -3.2636710309       -2.8147484687       -0.3345127674
 C         -3.6435022432       -4.1472739310        0.2369839001
 C         -4.6910128039       -3.0975264531        0.0222131595
 H         -5.4026457126       -3.2294138542       -0.7786910004
 H         -5.0978063616       -2.5973983214        0.8889205202
 H         -3.6353294262       -5.0067950824       -0.4153130981
 H         -3.3424597182       -4.3608030707        1.2512476723
 H         -3.0166984780       -2.7683509272       -1.3868364729
