  62
        -98.93855457
 C          2.2508529131       -0.7402387477        0.0674296490
 C          3.2617620985       -0.6091971340       -0.9168475609
 C          4.1343432090        0.5710588762       -0.8135814284
 C          3.9155868422        1.4665098359        0.1643739602
 C          4.6445418135        2.7594703745        0.4325000825
 C          6.1755946516        2.7460235351        0.3211616300
 C          6.8453082514        1.4235993816        0.7225748447
 H          7.6408507932        1.6329319465        1.4401299611
 H          6.1225185444        0.7734819736        1.2185327725
 C          7.4667563622        0.6844376517       -0.4649889671
 H          8.2166907251       -0.0155133490       -0.0888828638
 H          7.9845211813        1.4098411110       -1.0962413180
 C          6.4894085967       -0.1178409547       -1.3231955844
 H          6.1365485836       -0.9897518837       -0.7659210255
 H          7.0347468247       -0.4926657596       -2.1925918275
 C          5.2523543554        0.6525021251       -1.8130156637
 H          5.4997516340        1.6827418355       -2.0567810152
 H          4.8850155958        0.1588155604       -2.7166751548
 H          6.4687665400        2.9972679575       -0.6972003967
 H          6.5442450182        3.5496781037        0.9608724410
 H          4.2426245879        3.5213323179       -0.2419359104
 H          4.3531172330        3.0438733663        1.4465450549
 O          2.9142129307        1.3150753662        1.0764131926
 C          2.0648142900        0.2195815834        1.0607457357
 O          1.2167539509        0.2265930961        1.9748237111
 O          3.4254688654       -1.4418714248       -1.8472468567
 C          1.3303144044       -1.9474638795       -0.0118249160
 C         -0.0418014006       -1.4673176422       -0.4140603819
 C         -0.3159328370       -1.2401816531       -1.7601298903
 C         -1.5406211663       -0.7364359697       -2.1552255010
 C         -2.5145867238       -0.4389874819       -1.2173271167
 C         -2.2434709136       -0.6436989974        0.1282406409
 C         -1.0207972480       -1.1725074005        0.5214922602
 H         -0.8196419269       -1.3140709245        1.5714901469
 N         -3.2193142072       -0.3344082104        1.0910278186
 S         -4.0295580989        1.1297115659        0.9654868404
 O         -3.2264788375        2.1403458865        0.3163596819
 O         -4.4806098694        1.4285560984        2.3074684651
 C         -5.4464001416        0.7345229723       -0.0408359044
 C         -6.2244549546       -0.3467360579        0.3245032057
 C         -7.3354638923       -0.6610941424       -0.4415661589
 C         -7.6506446311        0.1083615314       -1.5516807644
 C         -6.8621878186        1.1931901885       -1.9030084537
 C         -5.7484821948        1.5122398980       -1.1414389009
 H         -5.1023004142        2.3420724805       -1.3804201747
 H         -7.1085331078        1.7909172833       -2.7658694567
 H         -8.5156331261       -0.1388829849       -2.1466365170
 H         -7.9506533056       -1.5042391815       -0.1715113593
 H         -5.9465081535       -0.9176061867        1.1945403027
 H         -2.9052458291       -0.4846937635        2.0392925994
 H         -3.4672184484       -0.0336504163       -1.5167553675
 H         -1.7404447174       -0.5696887176       -3.2028053913
 H          0.4522832746       -1.4508163768       -2.4909945997
 H          1.7297386668       -2.5615051157       -0.8301103408
 C          1.3453440404       -2.7648945808        1.2626763434
 C          0.7708790116       -4.1490530931        1.2502248688
 C          2.2523689130       -3.9533996378        1.3596161227
 H          2.7325898719       -4.1577757861        2.3049173446
 H          2.8641841590       -4.1863097570        0.5005006872
 H          0.2316955583       -4.4920396811        2.1199239856
 H          0.3753463483       -4.5132734528        0.3143033446
 H          1.2171704086       -2.1693627422        2.1584469786
