  62
        -98.94307348
 C          1.7160517756        1.4858862918       -0.0842765303
 C          2.9992958641        1.1955655716        0.4541708810
 C          3.7131305744        0.0575520085       -0.1338931078
 C          3.1426201665       -0.6436364492       -1.1293587977
 C          3.7314993674       -1.8399531537       -1.8257388678
 C          3.4925840007       -3.1639051787       -1.0865701121
 C          4.3207234350       -3.3562707941        0.1844598185
 H          4.2215265954       -4.4037547305        0.4758873823
 H          5.3735084297       -3.1800030347       -0.0387112217
 C          3.8873753673       -2.4736627250        1.3636097300
 H          2.8814353953       -2.0879218214        1.1820646917
 H          3.8379007632       -3.0786651819        2.2716721283
 C          4.8220778517       -1.2993117750        1.6549899258
 H          5.7985746126       -1.6759126894        1.9677232997
 H          4.4017847845       -0.7252459140        2.4847243621
 C          5.0241139723       -0.3419204764        0.4727392050
 H          5.5111904864        0.5631394257        0.8440455526
 H          5.6667271322       -0.8010067019       -0.2783623713
 H          2.4307273201       -3.2422084150       -0.8424190503
 H          3.7357979129       -3.9727550508       -1.7793765489
 H          3.2520521157       -1.8993570606       -2.8053890921
 H          4.8014975765       -1.6910041878       -1.9726541026
 O          1.9267397227       -0.3216998646       -1.6378478830
 C          1.1735954054        0.7295316285       -1.1254809028
 O          0.0773207404        0.8657398846       -1.6984935539
 H         -1.5050928634        2.5198384016       -0.6473735167
 C         -1.5181921228        1.9886174917        0.2911594383
 C         -0.3795132391        1.9623284836        1.0806978457
 C         -0.4120139437        1.2569543586        2.2800795790
 C         -1.5593001286        0.5975384146        2.6808109584
 C         -2.6835781717        0.5945994880        1.8735483936
 C         -2.6503633917        1.2769550190        0.6644237237
 N         -3.7594180558        1.2118192585       -0.1971209295
 S         -4.4833288641       -0.2858677373       -0.3864701732
 O         -5.0129828598       -0.2890508007       -1.7330057581
 O         -5.4603878377       -0.4731443653        0.6600609389
 C         -3.2034372579       -1.5231296985       -0.2170758579
 C         -3.4270016033       -2.5985059008        0.6202757827
 C         -2.4474868382       -3.5698754043        0.7459060115
 C         -1.2616240051       -3.4497352064        0.0375248660
 C         -1.0545158037       -2.3661128889       -0.8008810086
 C         -2.0328293134       -1.3936822386       -0.9365110281
 H         -1.8626933864       -0.5392773187       -1.5721867234
 H         -0.1320297271       -2.2540703397       -1.3497895584
 H         -0.4954978290       -4.2025539159        0.1399903643
 H         -2.6085401541       -4.4135881557        1.3975215403
 H         -4.3586313420       -2.6472634335        1.1606190715
 H         -3.5894908566        1.6402542621       -1.0958181054
 H         -3.5808874601        0.0684416224        2.1572951133
 H         -1.5755310586        0.0662767832        3.6200555224
 H          0.4789873332        1.2232212087        2.8914150450
 C          0.9131012448        2.5759519669        0.6089324888
 H          1.5158829819        2.8320314432        1.4945346258
 C          0.7192854631        3.8696379866       -0.1653001622
 C          1.8732830762        4.4856065328       -0.8981285951
 C          0.6947584364        3.9621526198       -1.6599484914
 H          0.0197631929        4.6762930947       -2.1097628012
 H          0.8101840059        3.0562621137       -2.2323280074
 H          2.0186958074        5.5535063834       -0.8365882959
 H          2.7924657750        3.9187387635       -0.9332692343
 H          0.0659240187        4.5542766856        0.3679779476
 O          3.5211160052        1.8560565822        1.3905492766
