  62
        -98.94589806
 C         -1.5750715100       -1.4711768663       -0.2094679106
 C         -1.5347232847       -0.0836973889       -0.4897326672
 C         -2.8403302649        0.5674169417       -0.6714339661
 C         -3.9632116704       -0.1672634281       -0.5738548634
 C         -5.3563674810        0.3811525154       -0.6792322709
 C         -5.8980717278        0.7887845012        0.6982195092
 C         -4.9370825929        1.6597531746        1.5076811366
 H         -5.4369822190        1.9080536644        2.4465598557
 H         -4.0512689098        1.0728269560        1.7612049821
 C         -4.5026637175        2.9518347742        0.8017862064
 H         -5.1925997941        3.1784533720       -0.0119179159
 H         -4.5616438546        3.7764364056        1.5153556195
 C         -3.0712426810        2.9293468282        0.2621632037
 H         -2.3864147078        2.6098860872        1.0516335390
 H         -2.7987012492        3.9506037413       -0.0162503137
 C         -2.8361041058        2.0409494750       -0.9656375500
 H         -1.8352443154        2.2618438201       -1.3475828606
 H         -3.5659279157        2.2824985597       -1.7409575793
 H         -6.1034075902       -0.1183475433        1.2715560034
 H         -6.8410453235        1.3197996952        0.5552220660
 H         -5.3536202399        1.2392982205       -1.3484469643
 H         -6.0010193097       -0.3932130995       -1.0984675256
 O         -3.9589619033       -1.5006930232       -0.3139251846
 C         -2.7690026684       -2.1836132946       -0.1154008624
 O         -2.9059483704       -3.3982384874        0.1373590850
 O         -0.4688780390        0.5755794832       -0.5815837486
 C         -0.2721202233       -2.2233044069       -0.0069683302
 C          0.5419254498       -1.5383897448        1.0628639905
 C         -0.0535021965       -1.2744246516        2.2944072821
 C          0.6437763081       -0.6202695628        3.2906744956
 C          1.9461359268       -0.2023001289        3.0770741383
 C          2.5530178399       -0.4721679623        1.8571596527
 C          1.8568620796       -1.1506299389        0.8654535123
 H          2.3604047095       -1.3644107900       -0.0613532329
 N          3.8740513677       -0.0750378629        1.6145728575
 S          4.3828728892        0.3331345632        0.0784049908
 O          4.5914397201       -0.8583365886       -0.7069295864
 O          5.5626913679        1.1421929038        0.3061339430
 C          3.1045612395        1.3394780270       -0.6513642380
 C          2.6172064239        1.0153822455       -1.8997070416
 C          1.6571908863        1.8286714589       -2.4775133931
 C          1.2010636921        2.9454241700       -1.7977690842
 C          1.6979969044        3.2566620560       -0.5426912094
 C          2.6612487042        2.4495743639        0.0378538199
 H          3.0698370823        2.6711985322        1.0107094495
 H          1.3321849361        4.1218264247       -0.0130473983
 H          0.4480580629        3.5739356397       -2.2474250734
 H          1.2602125284        1.5822075504       -3.4498197004
 H          2.9935527216        0.1319160790       -2.3917667986
 H          4.2855811843        0.5149385364        2.3218681788
 H          2.4881967062        0.3233104380        3.8482562133
 H          0.1672011047       -0.4217057304        4.2390226086
 H         -1.0775322178       -1.5849838698        2.4547785509
 H         -0.5437415913       -3.2278803584        0.3484574788
 C          0.4579352599       -2.3501427996       -1.3277147830
 C          1.4105815971       -3.4829167823       -1.5594976759
 C          0.0892779643       -3.4572079891       -2.2666253832
 H          0.0736309303       -3.2517678822       -3.3264769980
 H         -0.6784483546       -4.1458234982       -1.9443572531
 H          2.3091488414       -3.2948096765       -2.1283921775
 H          1.5430854604       -4.1954282979       -0.7591902167
 H          0.6964355761       -1.3855372541       -1.7621765590
