  62
        -98.93269648
 C          1.0496357641        1.6249454905       -0.2821927890
 C          1.1157258644        0.2085838767       -0.3068339405
 C          2.2485546125       -0.4182849361        0.4066080474
 C          3.1052385347        0.3479835255        1.0987391777
 C          4.3269332597       -0.0821481047        1.8629832985
 C          5.5832391441        0.0028577956        0.9795247350
 C          5.8697498220       -1.2444806416        0.1442934776
 H          6.6990049372       -1.0035318605       -0.5247578916
 H          6.2037088280       -2.0482483512        0.8037755767
 C          4.6939783665       -1.7543523449       -0.6926117714
 H          4.1880645523       -0.9109611459       -1.1657259203
 H          5.0974823514       -2.3795864640       -1.4912580152
 C          3.6853306557       -2.5773214484        0.1228026056
 H          4.1201610947       -2.8157699791        1.0932352362
 H          3.5082262110       -3.5307920278       -0.3788885116
 C          2.3120207065       -1.9192545850        0.3180472322
 H          1.6620834953       -2.1763171008       -0.5241098753
 H          1.8362065693       -2.3343895278        1.2136556395
 H          6.4485414938        0.1882812205        1.6192142651
 H          5.4713182107        0.8694876943        0.3227671165
 H          4.1961967575       -1.0805322431        2.2699669134
 H          4.4358108430        0.6215671010        2.6911864865
 O          2.9800193860        1.7020353462        1.1489345528
 C          1.9793446175        2.3610170588        0.4669767934
 O          2.0198843763        3.6022746159        0.6043686497
 O          0.2963040579       -0.5434728392       -0.8949124238
 C          0.0023473719        2.5018023788       -0.9586154207
 C         -1.3516622645        2.4511163152       -0.2866659071
 C         -2.0235919244        3.6318164756        0.0160057159
 C         -3.2644755419        3.6006359585        0.6257784879
 C         -3.8526324699        2.3943288193        0.9638384451
 C         -3.1897719572        1.2108004292        0.6640151105
 C         -1.9594792184        1.2454489432        0.0242833027
 H         -1.4615494712        0.3202153924       -0.2055966076
 N         -3.7507429501       -0.0366308592        0.9736423408
 S         -2.7613395858       -1.2981623892        1.4608539066
 O         -3.6497932306       -2.1833676861        2.1911409026
 O         -1.6182579252       -0.8232263807        2.2086623967
 C         -2.2594063965       -2.1323846328       -0.0287201604
 C         -2.8907067724       -1.8810514175       -1.2286721044
 C         -2.4847007577       -2.5804951174       -2.3540461462
 C         -1.4689313502       -3.5178635521       -2.2599809365
 C         -0.8514223769       -3.7640469689       -1.0443423179
 C         -1.2491572782       -3.0650053724        0.0828165401
 H         -0.7830556730       -3.2109752331        1.0447281008
 H         -0.0556612953       -4.4885815655       -0.9714483931
 H         -1.1499995920       -4.0537429677       -3.1403452504
 H         -2.9569902368       -2.3837290213       -3.3033415384
 H         -3.6679415604       -1.1362075795       -1.2762633926
 H         -4.6085117319       -0.0083088967        1.5049485984
 H         -4.8121842769        2.3683688008        1.4577193164
 H         -3.7735610314        4.5245546084        0.8552445725
 H         -1.5583713124        4.5787519283       -0.2175709201
 H          0.3905167738        3.5194140776       -0.7965029298
 C         -0.1776308359        2.3833121818       -2.4712300405
 C          0.8201844806        1.7189985878       -3.3683412453
 C         -0.5495860152        1.1320998800       -3.2041802504
 H         -1.2472008593        1.2196112893       -4.0243138053
 H         -0.6327367791        0.2192592240       -2.6385765426
 H          1.0815347338        2.2016197529       -4.2986736979
 H          1.6424294462        1.1996439549       -2.8976946855
 H         -0.6251032280        3.2935088257       -2.8622262142
