  62
        -98.94097144
 C          1.5201497985        0.7060837251        0.4264960001
 C          2.5973208271        0.8969849110       -0.4746133295
 C          3.5084379651       -0.2483197470       -0.6252194755
 C          3.2603420247       -1.4007867951        0.0206972790
 C          4.0774183247       -2.6612743055       -0.0653926093
 C          5.2917343257       -2.6830242851        0.8730867639
 C          6.4478451201       -1.7696625751        0.4636459001
 H          7.3069192354       -2.0453282582        1.0786120069
 H          6.7151271877       -1.9665584422       -0.5750264806
 C          6.1683943251       -0.2717604752        0.6502514728
 H          5.3144445722       -0.1412108019        1.3192477974
 H          7.0266764564        0.2014662571        1.1327871713
 C          5.9015515026        0.4897190022       -0.6483077539
 H          6.7997591141        0.4793437438       -1.2696740890
 H          5.6793099860        1.5298288593       -0.3961818943
 C          4.7302486531       -0.0594418813       -1.4729982004
 H          4.4865728431        0.6695425455       -2.2495403251
 H          5.0132856294       -0.9977244938       -1.9492391122
 H          4.9597904836       -2.4210581732        1.8805325022
 H          5.6621956180       -3.7103452477        0.9027327810
 H          3.4137414277       -3.4822387873        0.2141360752
 H          4.4078936616       -2.8150919009       -1.0929575952
 O          2.1858235621       -1.5604865044        0.8394382421
 C          1.3170981952       -0.5103838839        1.0829388608
 O          0.4068418686       -0.7806840205        1.8930161265
 O          2.8048166358        1.9504736955       -1.1272315838
 C          0.4919788741        1.7837696167        0.7333120114
 C         -0.6398998835        1.6925744695       -0.2573649509
 C         -0.4078216388        1.7987362190       -1.6263543371
 C         -1.4539610950        1.6894170374       -2.5228738000
 C         -2.7427360630        1.4490173690       -2.0771510529
 C         -2.9823929986        1.3294319936       -0.7141774771
 C         -1.9336368711        1.4649581631        0.1863430010
 H         -2.1366547847        1.3673971158        1.2421994179
 N         -4.2786952303        1.0769086391       -0.2289553057
 S         -4.4973683922       -0.1916150639        0.8456736770
 O         -5.9249692163       -0.4264520250        0.8390464382
 O         -3.9154476993        0.1389439506        2.1198379574
 C         -3.6567050334       -1.5641502521        0.0779226638
 C         -4.3578452459       -2.3047322211       -0.8553097017
 C         -3.7108109198       -3.3281619222       -1.5269360853
 C         -2.3731853099       -3.5862318646       -1.2651239397
 C         -1.6852069181       -2.8337336726       -0.3269127244
 C         -2.3279962448       -1.8117753785        0.3553947488
 H         -1.8009324985       -1.2255388325        1.0920103078
 H         -0.6448692935       -3.0246259604       -0.1124654177
 H         -1.8643825627       -4.3787285599       -1.7911150950
 H         -4.2465739603       -3.9185872989       -2.2526280960
 H         -5.3979883560       -2.0753737912       -1.0222375782
 H         -4.9841419187        1.0410969041       -0.9516972690
 H         -3.5575626000        1.3540391277       -2.7787181102
 H         -1.2636075833        1.7814015814       -3.5813928665
 H          0.6000656899        1.9698309924       -1.9730475504
 H          0.0836711204        1.5208768217        1.7225217410
 C          1.0963811207        3.1766661322        0.8497736785
 C          0.7367040083        4.3187353835       -0.0482595080
 C          0.2521089726        4.3036462212        1.3680576746
 H          0.6842959871        4.9939270318        2.0767571859
 H         -0.7949539270        4.0972355102        1.5364986541
 H          1.5245970306        5.0042632186       -0.3207772791
 H          0.0159820846        4.1501394925       -0.8324354993
 H          2.1245866023        3.1470646395        1.1945178938
