  62
        -98.94468167
 C         -2.0234628571       -0.7481395774        0.5592700546
 C         -1.9486174924       -0.0416536001       -0.6654161952
 C         -1.9733769249        1.4210293560       -0.5589906977
 C         -2.0064415994        2.0029305375        0.6530848896
 C         -1.9822991956        3.4827643296        0.9264032102
 C         -3.3553759455        4.1625271535        0.8311397636
 C         -3.9064942278        4.3211686910       -0.5864016576
 H         -4.7591306368        5.0001151095       -0.5239582164
 H         -3.1539056773        4.7982528301       -1.2147127706
 C         -4.3661782445        3.0091634367       -1.2371358471
 H         -4.4917674477        2.2451623851       -0.4665730030
 H         -5.3417340927        3.1570038925       -1.7054502980
 C         -3.4230924777        2.4719364736       -2.3137040897
 H         -3.3868437975        3.1708365255       -3.1521910899
 H         -3.8250704586        1.5243438915       -2.6806599743
 C         -1.9900639531        2.2197312722       -1.8266967589
 H         -1.4598184694        1.6386319322       -2.5852784398
 H         -1.4647690059        3.1643422677       -1.6856281042
 H         -3.2566780545        5.1564258277        1.2736279324
 H         -4.0659524312        3.5969049867        1.4381218144
 H         -1.2831882782        3.9653312088        0.2423520078
 H         -1.6062043765        3.6019440404        1.9451035516
 O         -2.0477911643        1.2877948446        1.8103777913
 C         -2.0581436058       -0.0974397784        1.7906544962
 O         -2.1018206939       -0.6279057626        2.9214960837
 O         -1.8665730665       -0.6032083233       -1.7894169290
 C         -1.9477060102       -2.2645242819        0.5583798661
 C         -0.6527164622       -2.6878156524       -0.0941109640
 C         -0.5541914921       -3.7301786772       -1.0063270652
 C          0.6624595661       -4.0294458779       -1.5956043901
 C          1.7947933118       -3.2924316466       -1.3027649107
 C          1.7097116313       -2.2602312453       -0.3744269551
 C          0.4989052793       -1.9850123572        0.2367164097
 H          0.4459312667       -1.1810377742        0.9578541696
 N          2.8399539868       -1.4970055671       -0.0308443400
 S          2.6079884648        0.1331567445        0.3490969964
 O          2.2399600066        0.2370315050        1.7403960649
 O          1.7158880916        0.7560146785       -0.6021078821
 C          4.2698009209        0.7432891202        0.1272842013
 C          5.1907668375        0.5460038848        1.1388954038
 C          6.4915447389        0.9877603192        0.9560319126
 C          6.8481149786        1.6152232783       -0.2285525104
 C          5.9126000713        1.8080185558       -1.2339216832
 C          4.6101762309        1.3671690195       -1.0580363482
 H          3.8459487270        1.5008644903       -1.8069898415
 H          6.1912679526        2.2990164752       -2.1523199457
 H          7.8607774914        1.9589609747       -0.3679369267
 H          7.2204950471        0.8420901943        1.7367266775
 H          4.8635307864        0.0622410843        2.0444456430
 H          3.6061108902       -1.6194248202       -0.6793936403
 H          2.7355330733       -3.5099413022       -1.7851335377
 H          0.7246151962       -4.8370719510       -2.3091484447
 H         -1.4321360344       -4.2981475664       -1.2673244382
 H         -1.9178041150       -2.5703991613        1.6150956166
 C         -3.1770123477       -2.8628352403       -0.0929401122
 C         -3.6800973369       -4.2088717245        0.3320704514
 C         -4.4381007777       -2.9724559982        0.7084189511
 H         -5.3792612064       -2.7721628371        0.2189349410
 H         -4.4003080985       -2.6388580574        1.7355561576
 H         -4.1060912387       -4.8597582517       -0.4164677073
 H         -3.1355518927       -4.7235302149        1.1092274135
 H         -3.2684282873       -2.5844392967       -1.1364979730
