  62
        -98.94357109
 C         -2.5538844780       -0.0215844424       -0.1247868846
 C         -2.4398678787       -1.1748543851       -0.9405270232
 C         -1.9388749174       -2.3875470396       -0.2867785331
 C         -1.6136397574       -2.3530830092        1.0178264702
 C         -1.0727546282       -3.4991446235        1.8285590917
 C          0.4470133619       -3.6684400595        1.6959216920
 C          0.9148876458       -4.2761968695        0.3728390559
 H          1.9583728963       -4.5690280495        0.5046071943
 H          0.3436255484       -5.1819193795        0.1645897290
 C          0.8231458725       -3.3195476479       -0.8239433086
 H          0.7487401928       -2.2890579200       -0.4663834130
 H          1.7445700583       -3.3738658167       -1.4095152416
 C         -0.3330211261       -3.6002904434       -1.7845740247
 H         -0.3228662952       -2.8235126415       -2.5540523190
 H         -0.1764169459       -4.5644977965       -2.2746961652
 C         -1.7215898347       -3.6063502316       -1.1322330566
 H         -1.8526909640       -4.5095755815       -0.5362409958
 H         -2.4716855537       -3.5973056603       -1.9273495653
 H          0.9163442245       -2.6899496810        1.8280148464
 H          0.7785292049       -4.3168101988        2.5105144906
 H         -1.5738310563       -4.4249861693        1.5442429873
 H         -1.3071122068       -3.2795967674        2.8723912669
 O         -1.7568434356       -1.2356293136        1.7745019662
 C         -2.1647406012       -0.0328361720        1.2169099780
 O         -2.1588550822        0.9179923275        2.0217337895
 O         -2.7366853959       -1.1864427767       -2.1670155138
 C         -2.9152467797        1.2905549433       -0.8035543623
 C         -1.8454280964        2.2967949654       -0.4589751968
 C         -2.0811539244        3.5386356581        0.1128999539
 C         -1.0185097761        4.3488534575        0.4773770236
 C          0.2880095208        3.9311305219        0.3064050454
 C          0.5327280731        2.6936528838       -0.2803065811
 C         -0.5306136978        1.9101939262       -0.6893217483
 H         -0.3320728645        0.9505487330       -1.1464035427
 N          1.8432684008        2.2201361578       -0.4738260988
 S          2.0838667066        0.5478878795       -0.3876024811
 O          1.8035684558       -0.0154955092       -1.6847646956
 O          1.3684702962       -0.0171053268        0.7338835662
 C          3.8401111181        0.4946993637       -0.0836016493
 C          4.7078968440        0.5326870150       -1.1583168201
 C          6.0727503888        0.5279554820       -0.9175224078
 C          6.5443373931        0.4866869171        0.3861796432
 C          5.6613171184        0.4461201237        1.4549036280
 C          4.2952066407        0.4517480493        1.2207433174
 H          3.5704712578        0.4117959623        2.0186299813
 H          6.0299841543        0.4099307425        2.4673341935
 H          7.6068272343        0.4828886683        0.5711671811
 H          6.7621307838        0.5559453654       -1.7457815232
 H          4.2926159875        0.5551405885       -2.1523149272
 H          2.5278679600        2.7260716072        0.0713733236
 H          1.1120779390        4.5489133063        0.6296465998
 H         -1.2126925174        5.3094656242        0.9301731514
 H         -3.0921096514        3.8582213124        0.3058422028
 H         -2.8361353836        1.0656746869       -1.8814889861
 C         -4.3333390667        1.7838267604       -0.5698916320
 C         -5.4322719669        0.8255102292       -0.2224495591
 C         -4.9625535030        1.8252585782        0.7891183103
 H         -5.6122222793        2.6557818189        1.0242169704
 H         -4.3716458342        1.4801865474        1.6222116870
 H         -6.4005666058        0.9662038736       -0.6788798897
 H         -5.1608946000       -0.2106588407       -0.0793958956
 H         -4.5973584822        2.5872081322       -1.2512272304
