  62
        -98.94062142
 C          1.5731047907        0.4793934706        0.8159109196
 C          2.9310843407        0.5934445713        1.2137838693
 C          3.9174214606        0.7155713304        0.1352301891
 C          3.5086788105        0.6972597890       -1.1459314708
 C          4.3876214704        0.8358107579       -2.3593206410
 C          5.0423946606       -0.4771694725       -2.8094331898
 C          6.1708122507       -0.9825472013       -1.9095997093
 H          6.6809274308       -1.7802346418       -2.4532347686
 H          6.8942596106       -0.1819681210       -1.7520465302
 C          5.7024075710       -1.5305260600       -0.5542342187
 H          4.6301630410       -1.7368903603       -0.5959418584
 H          6.2022540811       -2.4808623397       -0.3534140178
 C          5.9845543409       -0.6103273087        0.6335037703
 H          5.5798832411       -1.0794427279        1.5339253908
 H          7.0635038709       -0.5035470884        0.7655883801
 C          5.3669091506        0.7886983910        0.5101243089
 H          5.9188751404        1.3803343204       -0.2199845817
 H          5.4350488606        1.2798491420        1.4839117584
 H          4.2680742207       -1.2439902827       -2.8897293589
 H          5.4501101304       -0.3118612534       -3.8094690500
 H          5.1595553802        1.5822339082       -2.1694377519
 H          3.7468606502        1.1948329769       -3.1676845914
 O          2.2018174305        0.5654481084       -1.4905163606
 C          1.2029454106        0.4318715892       -0.5295294103
 O          0.0654469306        0.2955147885       -1.0132150501
 O          3.3020512108        0.5962795326        2.4175600293
 C          0.5384746008        0.3318565916        1.9180925398
 C         -0.3107893890       -0.8904743088        1.6812985211
 C          0.2310347513       -2.1419110884        1.9626460424
 C         -0.5099744985       -3.2927216888        1.7777165936
 C         -1.8058431586       -3.2152559195        1.2993445637
 C         -2.3521132188       -1.9739617499        0.9993809724
 C         -1.6084628190       -0.8178873196        1.1968326712
 H         -2.0403523992        0.1387889901        0.9534197302
 N         -3.6754585889       -1.8677539507        0.5238153725
 S         -3.9003650491       -1.2378523023       -1.0224548782
 O         -5.2185310991       -1.7098918329       -1.4015098076
 O         -2.8251986392       -1.6161875530       -1.9089322679
 C         -3.9838049795        0.5236333379       -0.8003453200
 C         -5.0620073695        1.0290400585       -0.0995093904
 C         -5.1798775397        2.4010869586        0.0479341082
 C         -4.2282507099        3.2385532082       -0.5155232227
 C         -3.1529585799        2.7130086877       -1.2150010823
 C         -3.0219741197        1.3397741675       -1.3590200309
 H         -2.1818567296        0.8907453072       -1.8644732205
 H         -2.4091124401        3.3642376274       -1.6462422730
 H         -4.3223272901        4.3079670083       -0.4078978338
 H         -6.0115957997        2.8140533190        0.5956996779
 H         -5.7859937393        0.3417287987        0.3054370504
 H         -4.1924171387       -2.7345285007        0.5933452634
 H         -2.3911839484       -4.1109442998        1.1513767446
 H         -0.0781915283       -4.2558006085        2.0054767646
 H          1.2460067713       -2.1998596379        2.3319612224
 H          1.1417227009        0.1454057226        2.8222079700
 C         -0.2813925194        1.5801549417        2.2051024886
 C          0.3673143204        2.9316740818        2.1830341172
 C         -0.6664657897        2.5786390106        1.1581349076
 H         -1.6409467397        3.0386043105        1.2320548972
 H         -0.3487206297        2.3958835996        0.1444926178
 H          0.1098252103        3.6411940725        2.9546117165
 H          1.4004229703        2.9795750817        1.8703199870
 H         -1.0056926693        1.4056491524        2.9951267489
