  62
        -98.93337186
 C          2.4053676489        1.0053127958        0.2594482411
 C          2.7472839323       -0.2884194813        0.7222307683
 C          3.8411409581       -0.9931006627        0.0285230389
 C          4.4340004724       -0.3873901369       -1.0170818544
 C          5.5871934772       -0.8811674043       -1.8492464148
 C          6.9377610010       -0.7494331996       -1.1260122130
 C          6.9267669855       -1.1707872841        0.3412061061
 H          7.9023540519       -0.9200991775        0.7660390208
 H          6.1794594847       -0.5831392634        0.8775964825
 C          6.6778055265       -2.6563748571        0.5904015945
 H          7.4550828067       -3.2386650218        0.0904647197
 H          6.7757194507       -2.8262347227        1.6657235985
 C          5.3136487649       -3.1897798995        0.1483639933
 H          5.1916871768       -4.1815138194        0.5940067739
 H          5.2779680143       -3.3300916506       -0.9286200883
 C          4.1214543876       -2.3574706462        0.6108033896
 H          4.1826849593       -2.2150442861        1.6959246837
 H          3.2057577523       -2.9401001489        0.4494774358
 H          7.2406599214        0.2995781840       -1.1673336209
 H          7.6792994706       -1.3364313015       -1.6702909567
 H          5.4102851528       -1.9069034691       -2.1590474728
 H          5.6126942855       -0.2618238975       -2.7485143046
 O          4.0568115448        0.8490204971       -1.4453049088
 C          3.0421796575        1.5755322027       -0.8428702172
 O          2.8277890558        2.6774179633       -1.3788711467
 O          2.1669826187       -0.8366167901        1.7001704681
 C          1.2871853930        1.7182848864        0.9994352687
 C         -0.0342793789        1.3707149436        0.3636636778
 C         -0.2854711233        1.6522649198       -0.9764328844
 C         -1.4929825336        1.2989167761       -1.5493374770
 C         -2.4670992981        0.6519136330       -0.8075345843
 C         -2.2158765097        0.3426490602        0.5217746958
 C         -1.0073278095        0.7127297858        1.0999175249
 H         -0.8098640811        0.4597954313        2.1328830678
 N         -3.1937443039       -0.3185618983        1.2812238964
 S         -4.0029291719       -1.6259681079        0.6079800946
 O         -4.4664189101       -2.3992005287        1.7392422300
 O         -3.1841240404       -2.3231932785       -0.3562828545
 C         -5.4065874004       -0.8833953319       -0.1988223890
 C         -6.1996816705       -0.0208400052        0.5325090070
 C         -7.3013998259        0.5556414095       -0.0789098979
 C         -7.5927211734        0.2586516217       -1.4020582692
 C         -6.7893908906       -0.6127366765       -2.1213337824
 C         -5.6846384624       -1.1916045912       -1.5160490879
 H         -5.0281451486       -1.8695076495       -2.0383190157
 H         -7.0174857517       -0.8432892049       -3.1496120475
 H         -8.4508330111        0.7088561502       -1.8756313466
 H         -7.9284675815        1.2338383339        0.4770549368
 H         -5.9416179020        0.1819958074        1.5583882212
 H         -2.9068040549       -0.5224310058        2.2277967973
 H         -3.4055916136        0.3687439007       -1.2551642802
 H         -1.6788341161        1.5275038374       -2.5879170366
 H          0.4799752024        2.1424449475       -1.5593822289
 H          1.2945296167        1.2710616721        2.0062497534
 C          1.5203483762        3.2132699546        1.1641586940
 C          0.6296533580        4.2664265985        0.5827988334
 C          0.6137473275        4.0085014238        2.0573891064
 H          1.0489081462        4.7400321501        2.7211806684
 H         -0.2475918964        3.4991334552        2.4634951879
 H          1.0993382501        5.1662468233        0.2160048550
 H         -0.2250697778        3.9552574710        0.0038213164
 H          2.5768754341        3.4557340651        1.2078229809
