  62
        -98.94536914
 C         -1.0194674142       -1.6967202108       -0.3856516230
 C         -2.2468011987       -1.6953812470        0.3259760191
 C         -3.2964302290       -0.8078444838       -0.1824004828
 C         -3.0729618486       -0.0836429971       -1.2933991577
 C         -4.0286611738        0.8922504157       -1.9232463137
 C         -3.9678797224        2.2900077497       -1.2912726444
 C         -4.6060543143        2.4012381184        0.0941658247
 H         -4.7023748552        3.4658483484        0.3167838491
 H         -5.6120860336        1.9803995302        0.0661001095
 C         -3.7972389408        1.7367398794        1.2173720004
 H         -2.7680008042        1.5815594514        0.8816593346
 H         -3.7472875221        2.4109915963        2.0759138584
 C         -4.3731161290        0.4109235380        1.7174962119
 H         -5.3428064480        0.5895707848        2.1879821102
 H         -3.6965734723        0.0120555331        2.4778370339
 C         -4.5461174393       -0.6586714560        0.6309717045
 H         -5.3924960065       -0.4125518305       -0.0097474001
 H         -4.7417052146       -1.6156362202        1.1211352736
 H         -4.4854342889        2.9782154403       -1.9640799545
 H         -2.9215488255        2.6030986799       -1.2329784575
 H         -3.7448484032        0.9759001212       -2.9745577616
 H         -5.0468672321        0.5065746569       -1.8657901981
 O         -1.9139412105       -0.1671387001       -1.9927151480
 C         -0.8368952468       -0.9191917453       -1.5304535231
 O          0.1787647293       -0.8073760002       -2.2411120916
 O         -2.4488668830       -2.4025323913        1.3505966937
 C          0.1128550923       -2.4826551766        0.2468798220
 C          0.8247265168       -1.6429974540        1.2861837190
 C          1.4091533189       -2.2297339476        2.4035209437
 C          2.0555313996       -1.4527271099        3.3474917806
 C          2.1382689249       -0.0794279798        3.1970167728
 C          1.5575011928        0.5164560723        2.0836608674
 C          0.9143874324       -0.2685356072        1.1375615021
 H          0.4572287983        0.2105084883        0.2862201159
 N          1.5990897185        1.9035246364        1.8987622782
 S          1.5420455581        2.5573951594        0.3649317429
 O          2.0959799161        3.8864864221        0.5313538216
 O          0.1966037514        2.5111232744       -0.1521159559
 C          2.6481835944        1.5749374841       -0.6323971794
 C          2.3010469503        1.2862207803       -1.9350573070
 C          3.1685036298        0.5321612486       -2.7096080040
 C          4.3623950735        0.0825099125       -2.1700704377
 C          4.7036867431        0.3917569093       -0.8619738901
 C          3.8427552842        1.1481170057       -0.0848091928
 H          4.0872104306        1.4021920074        0.9335598199
 H          5.6340520889        0.0418542394       -0.4445479255
 H          5.0297262512       -0.5136098397       -2.7725493388
 H          2.8930281825        0.2877288635       -3.7225956819
 H          1.3519648946        1.6271827685       -2.3158241108
 H          2.1914822513        2.4209861972        2.5300577996
 H          2.6339503193        0.5284310256        3.9379656088
 H          2.4989107815       -1.9193819851        4.2136279733
 H          1.3401568069       -3.2980818840        2.5380911781
 H         -0.3649289805       -3.3222285329        0.7719829811
 C          1.1272500838       -3.0388896858       -0.7326482300
 C          1.8255387989       -4.3297863365       -0.4306257141
 C          0.7966548718       -4.2707369139       -1.5184719104
 H          1.1178298018       -4.3221850757       -2.5474018343
 H         -0.1635268050       -4.7323898193       -1.3389143490
 H          2.8631322041       -4.4273165194       -0.7093866458
 H          1.5625110183       -4.8479104032        0.4787850101
 H          1.6930948395       -2.2677317802       -1.2399274799
