  62
        -98.93537357
 C          2.1711486133        1.3581494422        0.5462408794
 C          1.7708590718        0.0777711126        1.0188829792
 C          2.8021205806       -0.9615620095        1.0547482516
 C          4.0717721095       -0.6441195006        0.7454722508
 C          5.2478452506       -1.5822982918        0.7564024762
 C          5.4083455970       -2.3947873608       -0.5360605523
 C          4.3644715836       -3.4920265408       -0.7489781945
 H          4.7186675585       -4.1147998194       -1.5727858410
 H          4.3165353103       -4.1234957118        0.1386447799
 C          2.9616139056       -2.9707200801       -1.0909338505
 H          3.0294552684       -1.9272784419       -1.4069194391
 H          2.5588968446       -3.5344893969       -1.9351605140
 C          1.9477946898       -3.0757209440        0.0490289909
 H          1.7556550904       -4.1271484718        0.2741265635
 H          1.0133028430       -2.6183574655       -0.2867193710
 C          2.3740024791       -2.3680933841        1.3419874904
 H          1.5130764560       -2.3255003399        2.0138573873
 H          3.1741204329       -2.9217211831        1.8326224109
 H          6.3955284119       -2.8616895635       -0.5061638951
 H          5.3922259670       -1.7068311628       -1.3845627500
 H          5.1668141190       -2.2598646836        1.6068888293
 H          6.1385439756       -0.9640174596        0.8874044916
 O          4.4371018122        0.6156634894        0.4002944951
 C          3.5047192462        1.6412799994        0.2500510560
 O          4.0206025104        2.7097848602       -0.1249396015
 O          0.5932557286       -0.1812940108        1.3853251008
 C          1.0417720867        2.3740387874        0.4324019770
 C         -0.0849200919        1.7679053544       -0.3683485654
 C          0.1649472841        1.0166868040       -1.5118760285
 C         -0.8723205080        0.4379797782       -2.2198974636
 C         -2.1816368060        0.6000972509       -1.8021244286
 C         -2.4427478290        1.3641849041       -0.6736665639
 C         -1.4015946487        1.9486588148        0.0302298712
 H         -1.6197413657        2.5091320039        0.9298978698
 N         -3.7930918946        1.4819903692       -0.2352592623
 S         -4.1730314933        0.3331592108        0.9463231678
 O         -5.6031281417        0.4374740602        1.1433310879
 O         -3.3757077820        0.5388412413        2.1369977386
 C         -3.7684854680       -1.2098411235        0.1664182006
 C         -2.4971528681       -1.7318165945        0.3062190826
 C         -2.2034789917       -2.9306673698       -0.3253575074
 C         -3.1700449926       -3.5750473722       -1.0821853925
 C         -4.4393377618       -3.0323484708       -1.2144656887
 C         -4.7439971721       -1.8369849167       -0.5842298548
 H         -5.7169675104       -1.3781306596       -0.6491700541
 H         -5.1887000229       -3.5358159903       -1.8037164181
 H         -2.9303669439       -4.5066112007       -1.5703317711
 H         -1.2164567216       -3.3529497830       -0.2225039683
 H         -1.7599300273       -1.2026177649        0.8918175237
 H         -3.9897076406        2.3916948010        0.1635811352
 H         -2.9995516487        0.1423622321       -2.3341868372
 H         -0.6586583542       -0.1531928392       -3.0971753070
 H          1.1900839647        0.8650167541       -1.8224641299
 H          0.6568420371        2.5305857726        1.4564181268
 C          1.4410361947        3.7389357523       -0.1044737115
 C          1.3832061064        4.0841008190       -1.5592013625
 C          0.4087709256        4.7049214037       -0.6052741767
 H          0.5240821925        5.7483726802       -0.3541861652
 H         -0.6174705107        4.3727021126       -0.6542070341
 H          2.1805965669        4.6894808228       -1.9617707703
 H          1.0103077572        3.3390246153       -2.2450869485
 H          2.2668126918        4.1649124740        0.4516234364
