  62
        -98.94007021
 C         -2.0508813104       -0.7358492495       -0.2165846496
 C         -3.1623442004       -0.7059793586        0.6656714203
 C         -3.8338654803        0.5871083916        0.8243385992
 C         -3.3578237903        1.6656146910        0.1767585382
 C         -3.9066530102        3.0642881911        0.2629497770
 C         -5.0922012302        3.3306045003       -0.6749654632
 C         -6.4076385402        2.6672942508       -0.2648436526
 H         -6.6276237902        2.9125900917        0.7745402872
 H         -7.1943933502        3.1106170803       -0.8783427730
 C         -6.4335192103        1.1441144706       -0.4534666012
 H         -7.3676518003        0.8529226803       -0.9388721910
 H         -5.6203475003        0.8460740500       -1.1193874710
 C         -6.3278555304        0.3431290718        0.8441949095
 H         -7.2054574803        0.5343851424        1.4655456693
 H         -6.3188760104       -0.7198722284        0.5907431204
 C         -5.0702773303        0.6432434624        1.6704526392
 H         -5.1582501002        1.6179966829        2.1496708883
 H         -4.9769673604       -0.1219064769        2.4447433299
 H         -4.8187362502        3.0079173294       -1.6822472329
 H         -5.2476988701        4.4115702303       -0.7032424542
 H         -4.1989904101        3.2790967720        1.2913224968
 H         -3.0896677801        3.7342826308       -0.0138932036
 O         -2.2758599003        1.6047061102       -0.6433610517
 C         -1.6052570204        0.4094780999       -0.8780033507
 O         -0.6658914304        0.5209484591       -1.6890946408
 H          1.1386326795       -0.9641034602       -0.8040072395
 C          1.0656352095       -1.4833067694        0.1383803010
 C         -0.1231725105       -2.0959018589        0.5117209815
 C         -0.1966032406       -2.7178508178        1.7544847421
 C          0.8938076995       -2.7280797172        2.6041952421
 C          2.0764095195       -2.1173074076        2.2302072315
 C          2.1612464495       -1.4920597187        0.9904179610
 N          3.3698653796       -0.9007008291        0.5834408104
 S          3.3269047496        0.5221951201       -0.3274554709
 O          2.4293886797        1.4759910407        0.2855162283
 O          3.0976478796        0.1848551289       -1.7083296206
 C          5.0192898797        1.0541241101       -0.1277900214
 C          5.3226376898        2.0517265609        0.7787673177
 C          6.6460743598        2.4312309410        0.9415140774
 C          7.6390327697        1.8076201002        0.2014699979
 C          7.3195499397        0.8077621494       -0.7053464412
 C          5.9984237396        0.4252406094       -0.8738507708
 H          5.7003111796       -0.3388096212       -1.5725446601
 H          8.0936858796        0.3266177389       -1.2810655408
 H          8.6678196598        2.1047633203        0.3299279376
 H          6.8963464599        3.2104664616        1.6431983567
 H          4.5159736598        2.5124847515        1.3263065474
 H          4.0305753796       -0.8156304785        1.3448620803
 H          2.9301944695       -2.1228218670        2.8908425215
 H          0.8213657894       -3.2114348263        3.5666844325
 H         -1.1278137106       -3.1764501975        2.0543970225
 C         -1.3428581805       -2.0717230097       -0.3790064185
 H         -2.0509606506       -2.8154929793        0.0128360922
 C         -1.0239895006       -2.4302421210       -1.8147823082
 C         -0.7650541707       -3.8658277413       -2.1586438669
 C         -2.0289313907       -3.2020294616       -2.6144805375
 H         -2.1421441507       -2.9661980625       -3.6619960077
 H         -2.9531066807       -3.4749173511       -2.1259267472
 H         -0.0062126707       -4.0886205320       -2.8928536667
 H         -0.8330943707       -4.5895760506       -1.3604557962
 H         -0.4512965005       -1.6751698015       -2.3375796288
 O         -3.5764039005       -1.7188692980        1.2905513013
