  62
        -98.94112005
 C         -2.0795880628       -0.7821923496       -0.4341955588
 C         -3.2144380594       -1.2884125191        0.2523929689
 C         -4.4747970086       -0.5679937006        0.0453546172
 C         -4.4995419200        0.5138780410       -0.7532792367
 C         -5.7102742975        1.3436020473       -1.0843013523
 C         -6.0370276207        2.4166113558       -0.0367232674
 C         -6.6163370007        1.8887323139        1.2764245502
 H         -6.9993082201        2.7506923970        1.8263831628
 H         -7.4639769094        1.2369412223        1.0622770804
 C         -5.6049721020        1.1478804821        2.1623794621
 H         -5.7008744528        1.4958828949        3.1933801408
 H         -4.5903863613        1.3898717052        1.8370367116
 C         -5.7708415647       -0.3717679679        2.1800958386
 H         -4.9816406396       -0.7953173796        2.8063680781
 H         -6.7322024537       -0.6300763925        2.6295783395
 C         -5.6845312227       -1.0330953012        0.7983455506
 H         -5.5943570661       -2.1128397222        0.9404972584
 H         -6.5898231285       -0.8297880666        0.2266172564
 H         -5.1307017673        2.9910497134        0.1690832757
 H         -6.7663084970        3.0963549723       -0.4835764925
 H         -6.5742413214        0.6926912257       -1.2221709961
 H         -5.4956280044        1.8425008725       -2.0319200163
 O         -3.3901317644        0.9780764681       -1.3837490126
 C         -2.1506735491        0.3647884914       -1.2271491923
 O         -1.2341116187        0.9359387381       -1.8457768258
 O         -3.1746839925       -2.2984673872        1.0036002000
 C         -0.7594430149       -1.5002582073       -0.2110441168
 C          0.3045945360       -0.5091973857        0.1832715448
 C          0.2878756671        0.0248370240        1.4684553591
 C          1.2270518092        0.9609484411        1.8582480315
 C          2.2024480384        1.3854420031        0.9735392924
 C          2.2269627250        0.8589098383       -0.3110818873
 C          1.2918713680       -0.0932523050       -0.6957938340
 H          1.3083674845       -0.4788258204       -1.7030901564
 N          3.2124636929        1.2889825470       -1.2133631281
 S          4.7875885112        1.4129676414       -0.6733449398
 O          4.9635295800        2.6450927882        0.0548372584
 O          5.6085744814        1.2555758237       -1.8534552545
 C          5.0031257567        0.0257504295        0.4286507054
 C          4.8502278129       -1.2447643540       -0.0906392979
 C          4.9726377944       -2.3344014815        0.7556684492
 C          5.2431170429       -2.1363004627        2.1012666595
 C          5.3987786248       -0.8551058103        2.6063670001
 C          5.2759522233        0.2387525655        1.7642274444
 H          5.3872356185        1.2513966112        2.1161447785
 H          5.6108390466       -0.7039616733        3.6525547398
 H          5.3334300288       -2.9865045052        2.7588028681
 H          4.8537228179       -3.3322188599        0.3648151669
 H          4.6472666735       -1.3642096185       -1.1427934012
 H          3.1528169877        0.8658511632       -2.1269307461
 H          2.9307675895        2.1298232825        1.2517977970
 H          1.1982474459        1.3689231220        2.8571991283
 H         -0.4812976701       -0.2969314639        2.1571322811
 H         -0.9539322211       -2.1521351274        0.6561941887
 C         -0.3323589757       -2.4173281342       -1.3471905532
 C         -1.3522844628       -3.1933475584       -2.1242798711
 C         -0.5706406997       -2.1042908238       -2.7928860511
 H          0.1892869386       -2.3870109402       -3.5074661070
 H         -1.0728871337       -1.1813825265       -3.0362941093
 H         -1.1352187596       -4.2187994434       -2.3826560265
 H         -2.3930165918       -3.0092661199       -1.9003974368
 H          0.5914068122       -2.9378075869       -1.1121830887
