  62
        -98.93369678
 C          2.3331235721        0.9377676767       -0.6474051783
 C          3.5522446924        0.9423606208        0.0776918845
 C          4.4319653570       -0.2287779436       -0.0737789042
 C          4.0448833289       -1.2412210504       -0.8715887822
 C          4.7309943350       -2.5375614316       -1.2487212781
 C          5.9615713675       -3.0189721246       -0.4851766623
 C          5.6891275333       -3.4504525507        0.9556858873
 H          5.1087164406       -4.3763307347        0.9363087569
 H          6.6460443214       -3.6681733166        1.4348790127
 C          4.9219635952       -2.4458761414        1.8119221177
 H          3.9274698924       -2.2860411191        1.3900622158
 H          4.7827477183       -2.8879766111        2.8022723911
 C          5.6035094578       -1.0922170942        2.0005776643
 H          6.6109104652       -1.2393210501        2.3949119120
 H          5.0298314033       -0.5362164731        2.7471671803
 C          5.6939880591       -0.2155282715        0.7400303830
 H          6.5490021781       -0.4914072701        0.1274702115
 H          5.8404116171        0.8202738913        1.0599281295
 H          6.7430131909       -2.2655816678       -0.5177770881
 H          6.3410067372       -3.8915297831       -1.0238549940
 H          3.9561810090       -3.3094792063       -1.2021834998
 H          4.9976413868       -2.4335162271       -2.3062102706
 O          2.8651288859       -1.1997440375       -1.5545000123
 C          1.9831984607       -0.1358005471       -1.4635115117
 O          0.9560778724       -0.2885335906       -2.1552209249
 O          3.9020019277        1.9004684361        0.8176553610
 C          1.4325674904        2.1505793129       -0.4822767765
 C          0.2966840436        1.8549607544        0.4689823116
 C          0.2465752158        2.4583056384        1.7202143964
 C         -0.7948156417        2.1890036843        2.5911898686
 C         -1.8018014187        1.3095850704        2.2369016199
 C         -1.7574224363        0.6960819026        0.9912702768
 C         -0.7194654268        0.9789099273        0.1139513382
 H         -0.6813776357        0.4896305825       -0.8481043060
 N         -2.7537337305       -0.2326928824        0.6275707538
 S         -4.3601670332        0.2398356001        0.8497139594
 O         -4.5866732244        1.5394186199        0.2559804243
 O         -4.6778534839        0.1279484757        2.2513818766
 C         -5.2193084442       -1.0226900087       -0.0667823767
 C         -5.6179425705       -0.7653792711       -1.3644676120
 C         -6.2667796547       -1.7622589752       -2.0760900095
 C         -6.5013805391       -2.9930904313       -1.4819645079
 C         -6.0943333982       -3.2364068954       -0.1784948443
 C         -5.4463635501       -2.2437264260        0.5389775162
 H         -5.1196186274       -2.3841837425        1.5560326014
 H         -6.2802685346       -4.1943024321        0.2798680154
 H         -7.0067989941       -3.7667899877       -2.0380410769
 H         -6.5861109252       -1.5755152717       -3.0888157276
 H         -5.4224169450        0.2088338049       -1.7834969601
 H         -2.6144106536       -0.5644560781       -0.3181201003
 H         -2.6210908172        1.0951268545        2.9037529229
 H         -0.8227841812        2.6673618863        3.5587803104
 H          1.0372879644        3.1347040801        2.0114762022
 H          2.0674046830        2.9141328068       -0.0131523761
 C          0.9207682410        2.6987470018       -1.7999699067
 C          0.4278179360        4.1124705623       -1.8547182903
 C          1.7185187723        3.7420458772       -2.5203683832
 H          1.7539820056        3.7088419490       -3.5989242421
 H          2.6405739229        4.0705552644       -2.0633792152
 H         -0.4271092444        4.3364234838       -2.4741185360
 H          0.4741090501        4.6927094334       -0.9454817124
 H          0.4084351801        1.9630588533       -2.4059139115
