  62
        -98.94396764
 C         -1.2923058901       -1.2618552696        0.1451944609
 C         -1.4380732297        0.1042271507        0.5044829501
 C         -2.5656162895        0.8222350106       -0.1029659304
 C         -3.3601517097        0.1757950904       -0.9749283900
 C         -4.5719056695        0.7663486904       -1.6347505903
 C         -5.8381142896        0.5053383813       -0.8071992502
 C         -5.6931899594        0.8636503121        0.6717842296
 H         -6.6560443795        0.6697762527        1.1495621597
 H         -4.9657216697        0.1908160021        1.1317106500
 C         -5.2749381490        2.3170177721        0.9346016387
 H         -5.4591380188        2.9219093517        0.0461164984
 H         -5.8974291789        2.7207458828        1.7359571285
 C         -3.8188667989        2.4878278719        1.3718974686
 H         -3.6932718786        3.5096001921        1.7399468680
 H         -3.6056047692        1.8124122624        2.2042645290
 C         -2.7621101290        2.2608023309        0.2833563488
 H         -3.0037177188        2.8644042405       -0.5936027316
 H         -1.7992404289        2.5923259609        0.6803319086
 H         -6.0866686599       -0.5560166187       -0.8792261096
 H         -6.6598481994        1.0765304313       -1.2430992105
 H         -4.4240003991        1.8367024502       -1.7631649110
 H         -4.6890334896        0.3034877798       -2.6159836001
 O         -3.1693968101       -1.1199949099       -1.3233167592
 C         -2.1404293803       -1.8754938299       -0.7773109487
 O         -2.1107024207       -3.0471118502       -1.2004021680
 H          2.1222311001       -0.5577325002        0.9633914305
 C          2.1206967699       -1.1831006207        0.0832680109
 C          1.0416281296       -2.0192625905       -0.1666091086
 C          1.0595942994       -2.8180973412       -1.3055649182
 C          2.1391689994       -2.7766531621       -2.1683814682
 C          3.2124276097       -1.9388514623       -1.9202726287
 C          3.2017358099       -1.1345982316       -0.7861500492
 N          4.2794676202       -0.2870787918       -0.5091993497
 S          4.1505821706        1.0472340889        0.4738229695
 O          5.3279841509        1.8282221883        0.1545350491
 O          4.0314036405        0.6422946797        1.8526464198
 C          2.6999357609        1.9554187690       -0.0312181110
 C          2.0089066911        2.6618630198        0.9311715586
 C          0.9273597314        3.4378941899        0.5500931681
 C          0.5511755614        3.4877161893       -0.7822216519
 C          1.2502317512        2.7664386285       -1.7368196915
 C          2.3405916509        1.9979042483       -1.3631047910
 H          2.8991746407        1.4332016877       -2.0919280907
 H          0.9486303412        2.7998720679       -2.7716475015
 H         -0.2949540684        4.0879764993       -1.0779661623
 H          0.3804761715        3.9930964906        1.2954666377
 H          2.3210238611        2.5818514103        1.9600895986
 H          4.9659459902       -0.1811619324       -1.2399676597
 H          4.0535046197       -1.9075618829       -2.5957683887
 H          2.1434666392       -3.4007586526       -3.0491934578
 H          0.2124541192       -3.4508623311       -1.5185653078
 C         -0.1327562304       -2.0112192596        0.7815341513
 H          0.1553417298       -1.4081539892        1.6537157010
 C         -0.4857484008       -3.4039686192        1.2614450322
 C          0.4112358590       -4.0682205189        2.2611631926
 C         -0.9501472609       -3.5955831382        2.6725970923
 H         -1.7161290511       -4.3311976078        2.8673088327
 H         -1.0162455906       -2.7199553878        3.3022034018
 H          0.5829215587       -5.1300630290        2.1744686132
 H          1.2683209892       -3.5112259789        2.6101065723
 H         -0.9426033510       -4.0252785995        0.5030251425
 O         -0.6628371495        0.6923036109        1.3046779897
