  62
        -98.94834564
 C         -0.8030146347       -1.2476717608        0.0562762824
 C         -1.6117405428       -0.8015809294        1.1273772664
 C         -2.4450050065        0.3737145784        0.8500719472
 C         -2.3792155229        0.9690327952       -0.3547052150
 C         -3.2012762366        2.1462061949       -0.8055770000
 C         -4.6052814543        1.7705268590       -1.3015801176
 C         -5.6006206419        1.3659250848       -0.2135239478
 H         -5.6149294634        2.1271220367        0.5671374507
 H         -6.5906045243        1.3534832928       -0.6738434705
 C         -5.3325406019       -0.0097993435        0.4122998043
 H         -4.6641683011       -0.5821150597       -0.2351066957
 H         -6.2687450329       -0.5685325171        0.4800570785
 C         -4.7327418223        0.0403498325        1.8174249478
 H         -4.5462264572       -0.9844738115        2.1485282368
 H         -5.4490255470        0.4915782660        2.5078196593
 C         -3.4109553344        0.8140965352        1.9083710639
 H         -3.5954690845        1.8856118553        1.8339670949
 H         -2.9562604752        0.6053717221        2.8804314845
 H         -4.5131397064        0.9607724242       -2.0287515240
 H         -5.0083189329        2.6416633004       -1.8231530519
 H         -2.6597670774        2.6020122602       -1.6357571139
 H         -3.2826533955        2.8715042860        0.0043368146
 O         -1.5291474088        0.5553456392       -1.3310102883
 C         -0.7299211500       -0.5648462990       -1.1577419650
 O         -0.0151930008       -0.8428385717       -2.1380897315
 O         -1.6467681646       -1.3666779350        2.2546250598
 C          0.0158075679       -2.5128699201        0.2274196562
 C          1.4738816130       -2.2559833419       -0.0543849317
 C          2.2638151818       -3.1089934428       -0.8147786360
 C          3.5990560207       -2.8182029577       -1.0332332495
 C          4.1715255991       -1.6765611139       -0.5047797042
 C          3.3912154487       -0.8222986032        0.2678055269
 C          2.0574854033       -1.1203465976        0.4934441144
 H          1.4620173969       -0.4560698709        1.1035568005
 N          3.9482853845        0.3365167506        0.8256509976
 S          3.0337478153        1.6620339741        1.2269643388
 O          4.0082434588        2.7216029387        1.3916373335
 O          2.2221928380        1.3855477522        2.3873765912
 C          1.9865788751        2.0748415795       -0.1587925350
 C          2.3044337386        1.6969322710       -1.4468833435
 C          1.4991235316        2.1292239620       -2.4887858311
 C          0.4122578023        2.9479366701       -2.2318106853
 C          0.1109829380        3.3274021736       -0.9332854888
 C          0.8984794451        2.8799491056        0.1136124596
 H          0.6885559962        3.1347841855        1.1406754361
 H         -0.7327252588        3.9671958267       -0.7300252573
 H         -0.2061816774        3.2864977008       -3.0482290938
 H          1.7221986539        1.8194372443       -3.4967534258
 H          3.1534539951        1.0608044620       -1.6362307489
 H          4.8729096559        0.5827407854        0.5063482464
 H          5.2104173810       -1.4446388445       -0.6824134819
 H          4.2006953220       -3.4863415067       -1.6302925763
 H          1.8337631458       -3.9998805460       -1.2414682813
 H         -0.0833285227       -2.7849325774        1.2895217826
 C         -0.5763669037       -3.6238947892       -0.6168193246
 C         -0.4750726957       -5.0521269207       -0.1739249595
 C         -1.7926981894       -4.3411590159       -0.1157425187
 H         -2.5607636197       -4.6139311815       -0.8239634443
 H         -2.1756820803       -4.0477360814        0.8509744237
 H         -0.3409464783       -5.8171861756       -0.9237529389
 H          0.0329229871       -5.2519454147        0.7574385470
 H         -0.5245889141       -3.4096597101       -1.6787282322
