  62
        -98.94279351
 C         -2.0867248806        0.8907125923       -0.6947984500
 C         -2.9158649341        1.0469661196        0.4429850836
 C         -4.2803458873        0.5092524223        0.3210384421
 C         -4.6594537557       -0.0965287634       -0.8179055046
 C         -5.9977406001       -0.7348754214       -1.0489019321
 C         -5.9821668127       -2.2196880987       -0.6595553128
 C         -5.3871905044       -2.4906402552        0.7223782699
 H         -5.4575129560       -3.5658923305        0.9010455667
 H         -4.3244588811       -2.2371434665        0.7093647247
 C         -6.0741405905       -1.7357841643        1.8690147679
 H         -7.0575374799       -1.3900323018        1.5481986813
 H         -6.2291997454       -2.4276226163        2.6996353567
 C         -5.2747781546       -0.5525709290        2.4177224907
 H         -4.2574303204       -0.8756242344        2.6524829422
 H         -5.7409310185       -0.2327973865        3.3535042350
 C         -5.1919716083        0.6767846643        1.5043212227
 H         -4.7724347917        1.4982489964        2.0921948560
 H         -6.1945964803        0.9630341952        1.1805480215
 H         -5.3915511289       -2.7657055906       -1.3989847400
 H         -7.0057890314       -2.5969487049       -0.6973500191
 H         -6.7517190611       -0.2050613337       -0.4699195872
 H         -6.2409056532       -0.6493595916       -2.1094175467
 O         -3.8345457753       -0.2371258188       -1.8867753158
 C         -2.5382462577        0.2431559682       -1.8492033062
 O         -1.8901501787        0.0436429363       -2.8974678682
 O         -2.5620403735        1.6054816785        1.5140451459
 C         -0.6516305082        1.3912473239       -0.7545966370
 C          0.2811680754        0.4219084021       -0.0686771443
 C          0.2675671074        0.2437398188        1.3104919695
 C          1.1390706322       -0.6477183471        1.9098426484
 C          2.0467517563       -1.3677739073        1.1532099554
 C          2.0706745794       -1.1933828660       -0.2240820234
 C          1.1913961495       -0.3026317293       -0.8250439579
 H          1.2017153591       -0.1828244609       -1.9003249394
 N          3.0139422205       -1.9003420713       -0.9913937823
 S          4.6050427085       -1.8300115740       -0.4676156500
 O          5.4080718083       -1.9782611066       -1.6610261336
 O          4.8189143517       -2.8167935284        0.5610892368
 C          4.7813561661       -0.1915708947        0.2179683786
 C          4.6018466807        0.8880561237       -0.6243509933
 C          4.6725604685        2.1674840479       -0.0987507215
 C          4.9185068383        2.3449204777        1.2542373505
 C          5.1045590633        1.2514808595        2.0850859577
 C          5.0329712278       -0.0309892565        1.5649687013
 H          5.1663275494       -0.9084607555        2.1763449927
 H          5.2984715962        1.3928049449        3.1360910538
 H          4.9657550428        3.3424217034        1.6615405447
 H          4.5301890550        3.0205538216       -0.7427309637
 H          4.4177251243        0.7157454132       -1.6728386368
 H          2.9486967249       -1.7228230485       -1.9830771303
 H          2.7325249534       -2.0664898597        1.6047375224
 H          1.1133271583       -0.7828519488        2.9803486773
 H         -0.4458925791        0.7947865824        1.9029909748
 H         -0.3923124164        1.4013147155       -1.8218064887
 C         -0.4748920122        2.7951326615       -0.2092917591
 C          0.7607090106        3.5568726657       -0.5799700084
 C         -0.5674973089        3.9607069208       -1.1449413012
 H         -1.0268432743        4.8706719295       -0.7891710677
 H         -0.7652759267        3.7526027786       -2.1867861858
 H          1.2168695950        4.1903886645        0.1644879268
 H          1.4655026861        3.0718034646       -1.2385034783
 H         -0.8700279389        2.9258406256        0.7885104015
