  62
        -98.93419575
 C          1.9944979080        1.3642037213        0.3735887014
 C          2.4893699712        0.5975719045       -0.7093550110
 C          3.6988032712       -0.2037361844       -0.4403618918
 C          4.2504912782       -0.1883257424        0.7841256338
 C          5.4981288832       -0.8887775413        1.2605710930
 C          5.6949623752       -2.3501496400        0.8324407003
 C          4.4005271911       -3.1588534896        0.6617752791
 H          3.5560526338       -2.6104739965        1.0832311645
 H          4.4906471336       -4.0936763301        1.2183825112
 C          4.1031055563       -3.5104623687       -0.7981935139
 H          3.4169666094       -4.3607167563       -0.8217900136
 H          5.0321767843       -3.8277705626       -1.2769086864
 C          3.4685413429       -2.3954203696       -1.6290258306
 H          2.4369517813       -2.2305825656       -1.3046595072
 H          3.4236053993       -2.7342875425       -2.6668630247
 C          4.1942732388       -1.0407371177       -1.5841491276
 H          3.9371840113       -0.4937526605       -2.4952616392
 H          5.2730649937       -1.1725521058       -1.5498915928
 H          6.3193822785       -2.8205865185        1.5938202133
 H          6.2578975230       -2.3844388549       -0.0992801074
 H          5.4581681463       -0.8291155172        2.3508843070
 H          6.3627868302       -0.3020696117        0.9371934344
 O          3.7198714843        0.5384032601        1.8085504777
 C          2.5812023303        1.3071999191        1.6388008555
 O          2.1889162727        1.8759430143        2.6778064497
 O          1.9659794909        0.5775985859       -1.8517664447
 C          0.7453632986        2.2190486631        0.2419632765
 C         -0.3323789146        1.4406634268       -0.4730433775
 C         -0.9589773349        1.8708656903       -1.6342444474
 C         -1.9335306256        1.0916468747       -2.2342632894
 C         -2.3081219319       -0.1225949714       -1.6908869672
 C         -1.6961736906       -0.5566631348       -0.5211958398
 C         -0.7275479680        0.2289852667        0.0827724934
 H         -0.2465899509       -0.1134681287        0.9917686030
 N         -2.0766011313       -1.7849798352        0.0458625324
 S         -3.7098485258       -2.1359676451        0.1372132992
 O         -3.8411243245       -3.0307907531        1.2659682595
 O         -4.1690415792       -2.6506226284       -1.1287012110
 C         -4.5057617535       -0.5758726617        0.4782887447
 C         -5.4126250734       -0.0521367419       -0.4201800221
 C         -5.9917480076        1.1771298535       -0.1482991176
 C         -5.6524578386        1.8592385283        1.0095629863
 C         -4.7424254818        1.3178207188        1.9048983297
 C         -4.1619290504        0.0885851026        1.6389648682
 H         -3.4549127931       -0.3615635165        2.3176508010
 H         -4.4796333255        1.8492266365        2.8055998863
 H         -6.0994975434        2.8183439254        1.2180738473
 H         -6.7013925190        1.5995018976       -0.8411872802
 H         -5.6458161861       -0.6151482695       -1.3091450009
 H         -1.6027214686       -2.0064975526        0.9085408826
 H         -3.0485612903       -0.7499466102       -2.1600091961
 H         -2.4022378463        1.4316052781       -3.1450133618
 H         -0.6645134743        2.8022991833       -2.0881382794
 H          0.4065658544        2.3821964873        1.2787396539
 C          0.9914448058        3.5983419387       -0.3510421479
 C          2.3238472882        4.2709727673       -0.2129176162
 C          1.8523510683        3.8116166597       -1.5582670271
 H          1.5508692170        4.5604059861       -2.2762586894
 H          2.3157702997        2.9443622420       -2.0004494022
 H          2.3438631650        5.3304999375       -0.0060133153
 H          3.1171402533        3.7181972859        0.2695911446
 H          0.1212242681        4.2399931437       -0.2537274121
