  62
        -98.94118402
 C         -1.6415302444       -0.4898841022        0.9541707820
 C         -2.8773851639       -1.0513667015        0.5506202635
 C         -3.9991533923       -0.1073788560        0.4209472819
 C         -3.8045714314        1.1987157525        0.6743294183
 C         -4.8424748777        2.2705895382        0.5135575007
 C         -4.7992335528        2.8783946187       -0.8955802889
 C         -4.7881283298        1.8395888940       -2.0171660785
 H         -3.8538250395        1.2750341974       -1.9716494846
 H         -4.7882627484        2.3836617136       -2.9642046906
 C         -5.9716701423        0.8624119180       -1.9894532835
 H         -6.3629989603        0.7572916902       -3.0036024263
 H         -6.7743946350        1.2696996331       -1.3735973438
 C         -5.6213863037       -0.5437534314       -1.4993504591
 H         -4.7567473220       -0.9197581493       -2.0521299599
 H         -6.4648872111       -1.2020945066       -1.7240475041
 C         -5.3270344247       -0.6724256613        0.0004775093
 H         -5.2890452283       -1.7389923231        0.2403469564
 H         -6.1377079719       -0.2200702397        0.5751170459
 H         -3.8951383839        3.4852348218       -0.9831224682
 H         -5.6626937039        3.5354782324       -1.0145313726
 H         -5.8265387541        1.8489350947        0.7086593003
 H         -4.6422376598        3.0557255053        1.2445044449
 O         -2.6058800225        1.7024540855        1.0631079257
 C         -1.5024369750        0.8799577022        1.2033061409
 O         -0.4655088195        1.4750705920        1.5579896203
 H          1.9725791363       -0.2939135739        0.2869012137
 C          1.5291487068       -0.9352549675       -0.4591803107
 C          0.3049383947       -1.5353142196       -0.2033794290
 C         -0.2680386373       -2.3385105350       -1.1837995750
 C          0.3825065047       -2.5384437027       -2.3873365676
 C          1.6170473205       -1.9612008900       -2.6285759425
 C          2.1947688280       -1.1516430463       -1.6574679391
 N          3.4322654917       -0.5358393961       -1.8813771996
 S          4.5066740914       -0.2685084823       -0.6294578964
 O          5.7871686606       -0.1160195420       -1.2868784380
 O          4.4284433528       -1.3050670753        0.3730050945
 C          4.0169537391        1.3010905587        0.0504162433
 C          3.8914842202        2.3734569815       -0.8100463955
 C          3.5279623003        3.6060989932       -0.2933890870
 C          3.2990892198        3.7453667397        1.0671582512
 C          3.4335161548        2.6602522002        1.9184547700
 C          3.7970608112        1.4247850193        1.4072744049
 H          3.9065970563        0.5539290552        2.0349407309
 H          3.2497661646        2.7691815472        2.9752602736
 H          3.0115249378        4.7045644363        1.4678958711
 H          3.4208613721        4.4536423335       -0.9512759561
 H          4.0801047790        2.2269681884       -1.8605989875
 H          3.8959961402       -0.7954046281       -2.7391948376
 H          2.1295452541       -2.1312964372       -3.5633338598
 H         -0.0711683661       -3.1610659393       -3.1438498254
 H         -1.2296003371       -2.7909800389       -0.9969411051
 C         -0.3695895901       -1.3046177303        1.1278872609
 H          0.3022044273       -0.6778712520        1.7301772417
 C         -0.5755785701       -2.6168911563        1.8596431705
 C          0.6270213989       -3.3259345467        2.4037995991
 C         -0.3482220554       -2.6763870728        3.3384448133
 H         -0.9909388589       -3.3079105819        3.9333513708
 H         -0.0480634470       -1.7659531569        3.8369493260
 H          1.5909637366       -2.8587024878        2.2614435948
 H          0.6540569083       -4.4038997510        2.3569147998
 H         -1.3760542248       -3.2201042568        1.4533359373
 O         -3.0633470682       -2.2727142519        0.3046566491
