  62
        -98.93550883
 C         -2.5378977008       -1.3329157303        0.2803368900
 C         -2.6932056909       -0.4485222701       -0.8138603399
 C         -3.6842650809        0.6274865299       -0.6425013696
 C         -4.3856655408        0.7084930097        0.5018166305
 C         -5.3490817908        1.8033876496        0.8612449507
 C         -4.5699856508        3.0603065096        1.2997264008
 C         -4.7306287408        4.2616209897        0.3675438210
 H         -5.7105514608        4.7130317797        0.5360582512
 H         -3.9756696008        4.9978415297        0.6514499910
 C         -4.6026059110        3.9692226299       -1.1306764590
 H         -4.4724321810        4.9308113100       -1.6318367689
 H         -5.5375846310        3.5487739000       -1.5039866890
 C         -3.4504542110        3.0422353600       -1.5391059293
 H         -2.6536206509        3.0676393099       -0.7952188293
 H         -3.0261919711        3.4191234401       -2.4721137793
 C         -3.8643862910        1.5800642200       -1.7923023195
 H         -4.9019518710        1.5473819201       -2.1353851894
 H         -3.2405663611        1.1746101202       -2.5942744296
 H         -4.8926237307        3.3579297194        2.2985265209
 H         -3.5128016707        2.7972856496        1.3773958607
 H         -5.9896288209        2.0260406198        0.0109272008
 H         -5.9685988507        1.4358628895        1.6794367907
 O         -4.2306570307       -0.1751015404        1.5205784603
 C         -3.3097599107       -1.2032191104        1.4403928501
 O         -3.2739896306       -1.9336973806        2.4502762000
 O         -2.0454619310       -0.5259534999       -1.8937048299
 C         -1.5388845808       -2.4809760503        0.2967382397
 C         -0.1458840008       -1.9787377203        0.5972949997
 C          0.5133502993       -2.3610349105        1.7598370496
 C          1.7875135393       -1.8946164305        2.0319901295
 C          2.4267865092       -1.0338322404        1.1575629696
 C          1.7776165191       -0.6472949902       -0.0077046103
 C          0.5043663191       -1.1266909302       -0.2836366602
 H          0.0002968890       -0.8167152500       -1.1869196001
 N          2.3947108591        0.2519207999       -0.8905534702
 S          4.0093763190        0.0548317900       -1.2885412204
 O          4.1662023689        0.7053977602       -2.5708470303
 O          4.4109216190       -1.3308912800       -1.2175238306
 C          4.8677405791        1.0044832098       -0.0501732803
 C          5.8597515592        0.4157603697        0.7090224895
 C          6.5183341393        1.1794173296        1.6603985396
 C          6.1756932593        2.5114594895        1.8340716798
 C          5.1791198492        3.0888979097        1.0613006000
 C          4.5179667191        2.3311874698        0.1081192799
 H          3.7411808891        2.7432088899       -0.5143939199
 H          4.9154730292        4.1253040596        1.1986425302
 H          6.6884116494        3.1037178494        2.5754738898
 H          7.2940743093        0.7328364295        2.2614237495
 H          6.0904584692       -0.6244179603        0.5421296894
 H          1.8351692790        0.4729913400       -1.7012976701
 H          3.4173918593       -0.6647733304        1.3671544696
 H          2.2874393694       -2.2002584306        2.9385025995
 H          0.0140722294       -3.0183400106        2.4569563995
 H         -1.8475307807       -3.1261564404        1.1299403597
 C         -1.5575321009       -3.3069254601       -0.9751832904
 C         -1.0388042109       -4.7114503201       -0.9349445006
 C         -2.5083414709       -4.4586496501       -1.0869779805
 H         -2.9716081210       -4.6530284499       -2.0426630704
 H         -3.1507019709       -4.6598773902       -0.2417861904
 H         -0.4883570110       -5.0815362299       -1.7864064607
 H         -0.6849912808       -5.0870712602        0.0133056593
 H         -1.3739234210       -2.7279173999       -1.8703968903
