  62
        -98.93846852
 C         -1.5310679952       -0.7083999167        0.0265354737
 C         -2.8062486002       -1.3131496187        0.0994019416
 C         -3.9164872438       -0.4464411586        0.5294057833
 C         -3.6693483270        0.8408983091        0.8273502696
 C         -4.6329990323        1.8911210461        1.3216070405
 C         -6.0195424439        1.9484323645        0.6664900881
 C         -6.0503750177        1.5717424811       -0.8219349842
 H         -6.5716357144        2.3548074479       -1.3757326016
 H         -5.0340537450        1.5154960635       -1.2153398591
 C         -6.7729362133        0.2489411098       -1.0876877309
 H         -7.6798905581        0.2165559714       -0.4798622544
 H         -7.0813990916        0.2208962054       -2.1356049712
 C         -5.9496052551       -1.0114079405       -0.8248849223
 H         -5.1660806457       -1.1067905420       -1.5815470824
 H         -6.6099067985       -1.8747129217       -0.9384297331
 C         -5.2751985666       -1.0856814076        0.5546864855
 H         -5.9091057094       -0.6568644214        1.3270769227
 H         -5.1071300066       -2.1406426426        0.7887047905
 H         -6.7073763396        1.3022667471        1.2100872313
 H         -6.3847170141        2.9693103113        0.7911455099
 H         -4.7532382021        1.7602485034        2.4010428969
 H         -4.1173916259        2.8422318625        1.1693802878
 O         -2.4204233009        1.3815812501        0.7458224176
 C         -1.3228868343        0.6319747916        0.3494626202
 O         -0.2495800819        1.2599987089        0.3278524890
 H          2.3829631128       -1.1783268811       -0.6868104712
 C          2.0691770404       -1.2992815703        0.3354509062
 C          0.7353304032       -1.5115671295        0.6445665874
 C          0.3852289668       -1.7134412796        1.9776133502
 C          1.3420213188       -1.6773531803        2.9725147857
 C          2.6684414132       -1.4297572215        2.6634652693
 C          3.0312121069       -1.2442680197        1.3356471623
 N          4.3677652161       -1.0134254299        0.9876772234
 S          4.7687576200       -0.1108025050       -0.3567332613
 O          4.5979923335       -0.8996647332       -1.5515001076
 O          6.1211931502        0.3323359143       -0.0903277666
 C          3.6674892114        1.2913337187       -0.3825391498
 C          2.9457042482        1.5659762181       -1.5251000263
 C          2.1081593223        2.6685641969       -1.5412370537
 C          2.0047614570        3.4720047359       -0.4180744850
 C          2.7387184266        3.1849083675        0.7213363967
 C          3.5805260803        2.0859586560        0.7422426121
 H          4.1665143756        1.8417939723        1.6136462898
 H          2.6504040304        3.8104680179        1.5951102535
 H          1.3421158205        4.3227452315       -0.4290362759
 H          1.5308744071        2.8912169948       -2.4248434017
 H          3.0485786621        0.9099829010       -2.3755050710
 H          4.9962571888       -0.8537799381        1.7603366506
 H          3.4153717586       -1.3871376531        3.4411732041
 H          1.0531184014       -1.8329207287        4.0011227350
 H         -0.6525399653       -1.8932940070        2.2235631363
 C         -0.3401980047       -1.5387270021       -0.4125021107
 H         -0.7137957541       -2.5699683944       -0.5021262605
 C          0.1458286473       -1.0728015708       -1.7691708748
 C          0.8243236775       -2.0280829850       -2.7033252329
 C         -0.5611588976       -1.5422593587       -3.0037288328
 H         -0.7009639615       -0.8448015833       -3.8159928659
 H         -1.3829440031       -2.2313425126       -2.8734196201
 H          1.6451437440       -1.6684857076       -3.3062533932
 H          0.9428252030       -3.0495142660       -2.3741822900
 H          0.4908746361       -0.0444723577       -1.7498707307
 O         -3.0081479665       -2.5290769375       -0.1664539583
