  62
        -98.94350711
 C          1.8471381126        0.2901668226       -0.2585447222
 C          2.9786655426        0.5455155316       -1.0685814381
 C          4.2711132079        0.5873744421       -0.3720411406
 C          4.3052734207        0.4040682327        0.9608758788
 C          5.5570177677        0.3722498566        1.7882842721
 C          6.1054357560       -1.0561858220        1.9124670723
 C          6.2166120297       -1.7934661766        0.5779721290
 H          6.6421308926       -2.7778095404        0.7847014845
 H          5.2141438097       -1.9547098228        0.1751177157
 C          7.0747682956       -1.0765706813       -0.4737027263
 H          7.7353465433       -1.8075766895       -0.9447430432
 H          7.7085150851       -0.3320443009        0.0095039403
 C          6.2763540018       -0.4101436587       -1.5956071529
 H          5.5725530851       -1.1294729369       -2.0219001689
 H          6.9742571999       -0.1268171011       -2.3880787303
 C          5.4967915428        0.8505981519       -1.2010884374
 H          6.1631335404        1.5513325250       -0.6937161069
 H          5.1396502647        1.3217676412       -2.1217098099
 H          7.0873052469       -1.0085534847        2.3869071179
 H          5.4399404436       -1.6266722051        2.5643137856
 H          6.3034693057        1.0208703399        1.3338268539
 H          5.3198987892        0.7488564104        2.7846780175
 O          3.1946678959        0.1784895266        1.7080185983
 C          1.9390599307        0.1097608944        1.1217650579
 O          1.0094101679       -0.1095275292        1.9200055941
 O          2.9095430525        0.7368669869       -2.3132987642
 C          0.4780124572        0.2241627719       -0.9082035897
 C         -0.4479756385        1.2594310727       -0.3186277473
 C          0.0347131082        2.5422130251       -0.0709180204
 C         -0.7845614094        3.5151605697        0.4661843249
 C         -2.1107135987        3.2377356924        0.7481001357
 C         -2.6084809821        1.9676766836        0.4886509752
 C         -1.7776519620        0.9867706875       -0.0368823236
 H         -2.1846447446        0.0081658682       -0.2293402180
 N         -3.9456829032        1.6514595002        0.7688032869
 S         -4.8242702771        0.7105626471       -0.2987605605
 O         -4.4087155799        0.9237813455       -1.6653048868
 O         -6.2074773578        1.0194249067       -0.0022448844
 C         -4.5003619749       -0.9708919263        0.1880173416
 C         -4.3741483348       -1.2730294787        1.5293173475
 C         -4.1696267274       -2.5922616658        1.9008421163
 C         -4.1047212937       -3.5829788008        0.9327637326
 C         -4.2399542268       -3.2641019152       -0.4094520857
 C         -4.4397238275       -1.9455712864       -0.7882061159
 H         -4.5380184671       -1.6515867851       -1.8211443860
 H         -4.1893538274       -4.0356113692       -1.1615234194
 H         -3.9460855368       -4.6088931385        1.2256922203
 H         -4.0600650131       -2.8432607635        2.9436378086
 H         -4.4261402401       -0.4798123807        2.2561315097
 H         -4.4967271885        2.4138757362        1.1352504634
 H         -2.7537890469        3.9975977273        1.1656867575
 H         -0.3908762542        4.5015755850        0.6608453049
 H          1.0680300699        2.7653145803       -0.2997624185
 H          0.6423131133        0.4826470776       -1.9657378518
 C         -0.0673395568       -1.1870383050       -0.8324594918
 C         -0.9791217180       -1.7098740728       -1.9006284136
 C          0.4314953694       -2.2068452141       -1.8104446684
 H          0.6026037214       -3.2146565977       -1.4634552501
 H          1.1414022722       -1.8736253665       -2.5535486868
 H         -1.7762233831       -2.3778121098       -1.6110421792
 H         -1.2363997566       -1.0430925110       -2.7101306041
 H         -0.2362497379       -1.5110460575        0.1886184414
