  62
        -98.93746957
 C         -2.1920516764       -0.8224106700       -0.1093432706
 C         -2.9161837071       -0.1238302776        0.8834472722
 C         -3.7028182678        1.0345017008        0.4277362680
 C         -3.6717413265        1.3812924959       -0.8707206130
 C         -4.3558434806        2.5421922874       -1.5488647347
 C         -5.8072786045        2.8422074132       -1.1503318445
 C         -6.6463883225        1.6110833042       -0.7783337777
 H         -7.5787298554        1.6326434073       -1.3454886290
 H         -6.1166241228        0.6985511955       -1.0569113672
 C         -7.0035070939        1.5594750494        0.7090985475
 H         -7.2968853938        2.5601128775        1.0340197756
 H         -7.8697204821        0.9065398184        0.8401582289
 C         -5.9015046650        1.0379246268        1.6304564591
 H         -5.7579465053       -0.0336173413        1.4667392513
 H         -6.2388436999        1.1611396679        2.6624828762
 C         -4.5319155440        1.7193182406        1.4761074220
 H         -4.6406095722        2.7822424890        1.2741658496
 H         -3.9884548903        1.5979868765        2.4174727094
 H         -5.8193899443        3.5442442172       -0.3177365130
 H         -6.2667824601        3.3534475813       -1.9979320613
 H         -3.7481146896        3.4371520932       -1.3859552645
 H         -4.3094744464        2.3128522548       -2.6161207618
 O         -2.9347726314        0.6953274421       -1.7899044541
 C         -2.1838015006       -0.4169255150       -1.4431460592
 O         -1.5688466566       -0.9380809488       -2.3914082486
 H          0.0469239388        0.1416979405        0.8482601389
 C          0.6625880605       -0.6013593529        0.3550253878
 C          0.0879278275       -1.8089653540       -0.0234285290
 C          0.8932612761       -2.7586720573       -0.6374525541
 C          2.2291440278       -2.4911815402       -0.8835842744
 C          2.7905393013       -1.2806603598       -0.5231437095
 C          1.9985311743       -0.3285653937        0.1059956581
 N          2.5577002234        0.9091845735        0.4704313200
 S          3.9801468425        0.9050093866        1.3636937977
 O          4.0908394498       -0.2848501402        2.1752938963
 O          3.9858947239        2.1676883030        2.0699049078
 C          5.2624245390        0.9248185160        0.1288956327
 C          6.2248416041       -0.0657145224        0.1184474564
 C          7.2169306040       -0.0254463721       -0.8489983584
 C          7.2294208630        0.9996227332       -1.7824219801
 C          6.2572210862        1.9885948656       -1.7561967911
 C          5.2631089317        1.9545082578       -0.7914986305
 H          4.4917050623        2.7043900284       -0.7346278033
 H          6.2700278221        2.7840555471       -2.4838082632
 H          8.0014051743        1.0284907132       -2.5350626271
 H          7.9737629550       -0.7929606589       -0.8711461065
 H          6.1717142982       -0.8455423469        0.8613456686
 H          1.8906869728        1.5528760078        0.8707511172
 H          3.8280584534       -1.0668511775       -0.7207487748
 H          2.8410802199       -3.2362231891       -1.3685817383
 H          0.4747030442       -3.7079697066       -0.9281813488
 C         -1.3713369696       -2.0344198285        0.2894253202
 H         -1.4737325835       -2.1100702333        1.3829462049
 C         -1.9419528054       -3.2880947053       -0.3398875951
 C         -1.7963531153       -4.6129136472        0.3454622100
 C         -3.1328663826       -3.9374390298        0.2968088377
 H         -3.8992220643       -4.3499926287       -0.3420965073
 H         -3.5148201931       -3.4908760407        1.2035242194
 H         -1.2731882160       -4.6326346380        1.2896436680
 H         -1.6472510652       -5.4936321658       -0.2607225018
 H         -1.9056190001       -3.2620823050       -1.4231939451
 O         -2.8949465424       -0.4432282539        2.1037165363
