  62
        -98.93718379
 C          1.7887170259        0.8850065942        0.4580427539
 C          2.4825464618        0.3542695888       -0.6556115935
 C          3.5998499030       -0.5496337522       -0.3424661493
 C          3.8669346913       -0.8635312497        0.9377085186
 C          4.9306994657       -1.8086973822        1.4307262809
 C          6.3899046040       -1.3837702052        1.1765999840
 C          7.0011259707       -1.9570568648       -0.1079288783
 H          8.0346258070       -2.2459112985        0.0939303693
 H          6.4674782143       -2.8705361622       -0.3735020656
 C          7.0289588887       -1.0126295211       -1.3134974102
 H          7.2463401813       -1.6107223486       -2.2010882187
 H          7.8475487788       -0.3000233181       -1.1891632645
 C          5.7537548643       -0.2060704081       -1.5599651226
 H          5.6880717298        0.6076249003       -0.8337727999
 H          5.8320143077        0.2631507805       -2.5426363930
 C          4.4495564353       -1.0237791799       -1.4852150795
 H          3.8615252669       -0.8730913047       -2.3929436182
 H          4.6658094017       -2.0868326798       -1.3892390899
 H          6.9757211448       -1.7461300216        2.0228607843
 H          6.4577661084       -0.2962309234        1.1792671489
 H          4.7670997847       -1.8944633894        2.5070372938
 H          4.7577882219       -2.7925125908        0.9881938274
 O          3.1370213099       -0.3724824080        1.9775322986
 C          2.0950897705        0.5152653230        1.7669596559
 O          1.5169328457        0.8867126555        2.8096705111
 H         -0.4843756234       -0.4555660275        0.8860817356
 C         -0.9372935324       -0.0475677300       -0.0096499806
 C         -0.4747933109        1.1661479453       -0.5051969136
 C         -1.0741082143        1.6878820481       -1.6430995414
 C         -2.0860595077        0.9921558826       -2.2836870163
 C         -2.5297058675       -0.2239857350       -1.7996344975
 C         -1.9513827702       -0.7439609585       -0.6476320840
 N         -2.4129951234       -1.9663934098       -0.1308192255
 S         -4.0683007782       -2.2018887562       -0.0490070020
 O         -4.2676598553       -3.1124121505        1.0569110825
 O         -4.5570501497       -2.6529013917       -1.3282992023
 C         -4.7562901671       -0.5981568954        0.3249365742
 C         -5.6547429139       -0.0151695951       -0.5452599930
 C         -6.1538524637        1.2433987804       -0.2500337672
 C         -5.7443647273        1.8954020919        0.9024646450
 C         -4.8438587070        1.2946558487        1.7691362378
 C         -4.3435640485        0.0355815823        1.4803452649
 H         -3.6444364617       -0.4578641437        2.1369343695
 H         -4.5254644746        1.8023175970        2.6655950761
 H         -6.1285569366        2.8773558991        1.1291529815
 H         -6.8558700963        1.7119662427       -0.9206085774
 H         -5.9423245516       -0.5562387878       -1.4319302739
 H         -1.9594065879       -2.2472360169        0.7257419613
 H         -3.3048428417       -0.7845216135       -2.2965162211
 H         -2.5335059868        1.4025490057       -3.1757913573
 H         -0.7421648973        2.6337922525       -2.0371391519
 C          0.6381213985        1.8539706887        0.2485978524
 H          0.2627737543        2.0971187674        1.2533546159
 C          1.1287132354        3.1258921017       -0.4093832507
 C          0.4007488923        4.4161994243       -0.1856844167
 C          1.7405930822        4.1922994612        0.4467557143
 H          2.5915915125        4.7356070859        0.0641957163
 H          1.7827844567        4.0113101489        1.5112814649
 H         -0.4694524119        4.3947359130        0.4524929539
 H          0.3328553510        5.1187572855       -1.0023840264
 H          1.5750738773        2.9482300203       -1.3806401274
 O          2.1863926124        0.6139073072       -1.8501219316
