  62
        -98.94739133
 C         -2.5655438503        0.1285868530        0.4059261640
 C         -2.1773596482        0.7032343626       -0.8285082555
 C         -1.7389017799        2.1048973030       -0.7728430794
 C         -1.7131051766        2.7407751461        0.4123689971
 C         -1.2627475868        4.1578952823        0.6197345109
 C          0.2322994558        4.2339990024        0.9549603475
 C          1.1273254730        3.4568197680       -0.0107653680
 H          2.1620691232        3.6384509442        0.2905861442
 H          0.9501658995        2.3849572096        0.1115763552
 C          0.9506197500        3.8335977601       -1.4883282659
 H          0.4659545273        4.8079941654       -1.5684587964
 H          1.9388972632        3.9219981627       -1.9441471246
 C          0.1729221175        2.8041061479       -2.3109084431
 H          0.5806412106        1.8084080397       -2.1202056326
 H          0.3242325487        3.0284388737       -3.3706079479
 C         -1.3407686584        2.7591000049       -2.0656268299
 H         -1.7567008915        3.7675098036       -2.1310560755
 H         -1.7873004106        2.1494387690       -2.8567804962
 H          0.5289287040        5.2849705255        0.9617778650
 H          0.3846864915        3.8286559353        1.9581722080
 H         -1.4733674394        4.7330420369       -0.2800220797
 H         -1.8324643224        4.5776972299        1.4509669734
 O         -2.0814663724        2.1512133443        1.5798991551
 C         -2.4976634360        0.8308824506        1.6074404461
 O         -2.7895099497        0.4058711623        2.7457910296
 H         -0.4082430768       -1.0583142842        0.9784583751
 C         -0.5893739751       -1.9048795658        0.3313630280
 C         -1.8895711735       -2.2090763645       -0.0493128055
 C         -2.0992129864       -3.3125819947       -0.8664894854
 C         -1.0265259319       -4.0668803688       -1.3105021665
 C          0.2698708094       -3.7313916958       -0.9658796877
 C          0.4881147021       -2.6383922609       -0.1349436418
 N          1.7886319958       -2.2616699324        0.2544765654
 S          2.0977531088       -0.5968775258        0.2810984373
 O          1.6400227624       -0.0545484732        1.5369836577
 O          1.5808176105        0.0177562468       -0.9184944395
 C          3.8807391999       -0.5967833058        0.2569605699
 C          4.5491364729       -1.0426212066        1.3819345360
 C          5.9344032452       -1.0707652888        1.3703457144
 C          6.6244031074       -0.6536723243        0.2412642913
 C          5.9398982684       -0.2058475058       -0.8782072856
 C          4.5536413841       -0.1773585067       -0.8742409594
 H          3.9772543056        0.1653097795       -1.7185963509
 H          6.4784298238        0.1210029529       -1.7530167519
 H          7.7026682143       -0.6755151098        0.2353945028
 H          6.4699358688       -1.4158999034        2.2399527936
 H          3.9700942747       -1.3468955388        2.2383042110
 H          2.5011384299       -2.7466908047       -0.2757567326
 H          1.1058327941       -4.3061628566       -1.3349789547
 H         -1.2023372020       -4.9184387302       -1.9502621416
 H         -3.1010379285       -3.5748556147       -1.1651490676
 C         -3.0020286571       -1.3244948803        0.4611516590
 H         -3.1576541750       -1.5538651492        1.5264582277
 C         -4.3113549127       -1.5157815631       -0.2762084118
 C         -5.2829429652       -2.5673273040        0.1663022668
 C         -5.5858354212       -1.1194332045        0.4045149552
 H         -6.3590895917       -0.6475670061       -0.1827209946
 H         -5.5079618871       -0.7368575665        1.4121446242
 H         -5.0111133320       -3.1725796273        1.0179286661
 H         -5.8542446804       -3.0905521045       -0.5855775511
 H         -4.2234760778       -1.3078229428       -1.3363631816
 O         -2.2134573450        0.0826518738       -1.9238063501
