  62
        -98.93909633
 C         -1.5162989456       -0.8353678542       -0.3848584792
 C         -2.7937646020       -1.4377012538       -0.3915177332
 C         -3.9444448068       -0.5288010516       -0.5381986891
 C         -3.7207248175        0.7911768078       -0.6626183880
 C         -4.7469907872        1.8853922506       -0.7681248440
 C         -5.0616618663        2.4707280936        0.6190792250
 C         -6.1635775700        1.7447353111        1.3898109445
 H         -6.1951960546        2.1739291590        2.3939722698
 H         -7.1266403591        1.9483692411        0.9168536280
 C         -5.9892615558        0.2283983666        1.5090828980
 H         -4.9478003595       -0.0057600934        1.7371063062
 H         -6.5892713512       -0.1121749584        2.3553064738
 C         -6.4317183334       -0.5311947896        0.2495842761
 H         -6.9943095399        0.1444698192       -0.3944933393
 H         -7.1187469647       -1.3313908305        0.5329363944
 C         -5.2978265448       -1.1857894703       -0.5536651125
 H         -5.1184428438       -2.1959396430       -0.1718049796
 H         -5.6183836367       -1.2998159932       -1.5947326564
 H         -4.1377105235        2.4634893095        1.2029387872
 H         -5.3644765936        3.5129385581        0.4995982210
 H         -4.3027772117        2.6701713681       -1.3836882242
 H         -5.6473467373        1.5246195787       -1.2564247039
 O         -2.4702630155        1.3297530070       -0.6545675600
 C         -1.3391622108        0.5426319880       -0.5125059234
 O         -0.2665330864        1.1717963590       -0.5155540824
 O         -2.9688731390       -2.6811874068       -0.2686562172
 C         -0.2844032304       -1.7091199727       -0.2436253692
 C          0.5533352869       -1.2480121369        0.9224888527
 C         -0.0647316462       -0.9785485057        2.1413317152
 C          0.6685495533       -0.5283936274        3.2212515926
 C          2.0332199197       -0.3257827547        3.1085445863
 C          2.6628011303       -0.6095851574        1.9034157511
 C          1.9255520866       -1.0826913933        0.8257416009
 H          2.4435071928       -1.3209810080       -0.0869813030
 N          4.0444984183       -0.4333317391        1.7627128048
 S          4.7285906804       -0.0799258945        0.2832575038
 O          4.8079301630       -1.2734233250       -0.5221122173
 O          5.9982731797        0.5287342210        0.6211085410
 C          3.6739741891        1.1227559128       -0.5049784481
 C          3.2451108918        0.9002606847       -1.7967620467
 C          2.4465729700        1.8496087249       -2.4120459758
 C          2.0899836336        2.9989370435       -1.7266846125
 C          2.5308917424        3.2093567486       -0.4303863866
 C          3.3319539978        2.2652232361        0.1889677050
 H          3.6905687052        2.4051847779        1.1960473445
 H          2.2444277991        4.1025788578        0.1011442905
 H          1.4578331885        3.7311444355       -2.2034239849
 H          2.0963194566        1.6850311901       -3.4190570220
 H          3.5381846015       -0.0125296181       -2.2918237993
 H          4.5028702262        0.0430064155        2.5245181661
 H          2.6053031820        0.0423463462        3.9462540303
 H          0.1732718456       -0.3209425002        4.1579807474
 H         -1.1335118331       -1.1204114262        2.2273911360
 H         -0.6593806896       -2.7207725494       -0.0279198077
 C          0.4793443292       -1.7381194163       -1.5512871301
 C          1.3007716992       -2.9344132801       -1.9249796742
 C          0.0199153855       -2.6486455134       -2.6485740991
 H          0.0684219271       -2.2947915639       -3.6674237063
 H         -0.8340360359       -3.2783241234       -2.4453770698
 H          2.2366453626       -2.7796644687       -2.4414187587
 H          1.3185120430       -3.7639090127       -1.2340701789
 H          0.8454633402       -0.7569947437       -1.8346568846
