  62
        -98.94208810
 C          0.5950367898        1.4502453741        0.0507394650
 C          1.3864420931        0.8543023701        1.0564870837
 C          2.4275090383       -0.0926467789        0.6124817756
 C          2.5344776658       -0.3660916977       -0.7014925550
 C          3.5722777633       -1.2062064145       -1.3970574361
 C          4.9290651208       -0.4904003716       -1.5040296019
 C          5.3930146547        0.2052853049       -0.2270135408
 H          6.3124300106        0.7487337501       -0.4604823459
 H          4.6476524758        0.9453000168        0.0701427176
 C          5.6858520953       -0.7211444232        0.9510941570
 H          6.0972157544       -0.1035781419        1.7536994619
 H          6.4546556928       -1.4402425045        0.6598360892
 C          4.4875108056       -1.4902821746        1.5123172484
 H          4.2433765036       -2.3437951345        0.8857255336
 H          4.7860655087       -1.8943236032        2.4841976217
 C          3.2452691721       -0.6392234681        1.7579031163
 H          2.5417813698       -1.2129160536        2.3744571108
 H          3.5209059436        0.2252988114        2.3727728343
 H          4.8509044892        0.2691065472       -2.2856409962
 H          5.6789369384       -1.2193417833       -1.8158376664
 H          3.6840953976       -2.1634063681       -0.8986039379
 H          3.1989741081       -1.3907749659       -2.4061283572
 O          1.6918363123        0.1730543490       -1.6279209369
 C          0.7187521679        1.0939807024       -1.2913882783
 O          0.0452003306        1.5114805392       -2.2521335402
 H         -1.5321855119        0.0909615656        0.5562491343
 C         -2.2158429367        0.8074752935        0.1244094287
 C         -1.8078409726        2.1267272496       -0.0261824290
 C         -2.7033211883        3.0420058897       -0.5647792343
 C         -3.9694652298        2.6376267759       -0.9504085400
 C         -4.3701748515        1.3234224533       -0.8021605842
 C         -3.4822149385        0.3993164716       -0.2605418147
 N         -3.8476699544       -0.9439967234       -0.1347517092
 S         -3.0561265599       -2.0183186117        0.8527970220
 O         -3.9130485259       -3.1857399605        0.8552745097
 O         -2.7654886597       -1.4560369487        2.1513771329
 C         -1.5537681425       -2.4205699591       -0.0109687498
 C         -1.6037740656       -2.6182312760       -1.3761416212
 C         -0.4526323220       -3.0137135227       -2.0372484754
 C          0.7188885522       -3.2160582102       -1.3250307488
 C          0.7550059025       -3.0062170695        0.0443271241
 C         -0.3908677010       -2.6020202983        0.7096557050
 H         -0.4023878573       -2.4155189438        1.7726176986
 H          1.6663381857       -3.1567397231        0.6001420096
 H          1.6088989867       -3.5386438876       -1.8411722123
 H         -0.4728522102       -3.1654379101       -3.1044605845
 H         -2.5325567440       -2.4594211575       -1.8984669942
 H         -4.8121732201       -1.1740986330       -0.3145091108
 H         -5.3567197387        1.0086220223       -1.1054178249
 H         -4.6549171735        3.3575515098       -1.3711506618
 H         -2.4100403470        4.0717334394       -0.6860223319
 C         -0.4230694327        2.5056443187        0.4354727683
 H         -0.4270737895        2.5232597205        1.5364748150
 C          0.0291031906        3.8609204905       -0.0716132486
 C         -0.2989780974        5.1089548455        0.6906496976
 C          1.1058697316        4.5884283137        0.6743686605
 H          1.8520707777        5.1275076865        0.1101848809
 H          1.4892784242        4.1197294937        1.5691666601
 H         -0.8663119649        5.0034098231        1.6031202787
 H         -0.5156047904        6.0101260306        0.1369050007
 H          0.0498003087        3.9107849206       -1.1548530671
 O          1.2515717062        1.1178661860        2.2839291296
