  62
        -98.94419785
 C         -1.7387674182       -1.4287853141        0.0001900333
 C         -2.8836540918       -0.8021908083        0.5511096686
 C         -3.3922652360        0.3742423040       -0.1638683174
 C         -2.7465302494        0.8041520928       -1.2629532114
 C         -3.1253222006        2.0167633340       -2.0620350561
 C         -2.3725476611        3.2601548887       -1.5698992031
 C         -2.4394128445        3.4649230246       -0.0564355534
 H         -1.8754511471        2.6643888992        0.4298471551
 H         -1.9111532543        4.3949824915        0.1673394295
 C         -3.8615527525        3.5310126550        0.5184895242
 H         -4.5721688468        3.7492999054       -0.2797133646
 H         -3.9096302431        4.3572483068        1.2310959033
 C         -4.3093457929        2.2733724403        1.2658163980
 H         -3.5449898060        1.9930789707        1.9957643406
 H         -5.2200339693        2.5139117091        1.8211482075
 C         -4.6138953140        1.0492828060        0.3930708827
 H         -5.1076294388        0.3050780375        1.0251061699
 H         -5.3000102235        1.3301949027       -0.4084927736
 H         -2.7800549898        4.1362795046       -2.0785165066
 H         -1.3193356116        3.1606534500       -1.8436329388
 H         -2.8644447738        1.8359635479       -3.1063309816
 H         -4.1996002499        2.1752462837       -1.9870307275
 O         -1.6399469328        0.1949683699       -1.7509699082
 C         -1.0771861242       -0.8984542540       -1.1100797135
 O         -0.0232173798       -1.2997786222       -1.6371251821
 H         -0.1383783232       -0.4784693257        1.9310768491
 C          0.6527459340       -1.1371411716        1.5915779352
 C          0.3197739505       -2.3382846722        0.9761428098
 C          1.3476440628       -3.1640980444        0.5422724547
 C          2.6693703245       -2.7783981147        0.6914027256
 C          2.9915533659       -1.5532021392        1.2466675882
 C          1.9691531671       -0.7295163984        1.6972599085
 N          2.2920585858        0.5800827711        2.1648541515
 S          2.0450065997        1.6970447184        0.9154147568
 O          2.3833175300        2.9896998921        1.4754464350
 O          0.7083350282        1.5952526320        0.3699805032
 C          3.2719916783        1.1945957770       -0.2653178930
 C          2.9364234321        0.3025322159       -1.2642640087
 C          3.9312518275       -0.1254847587       -2.1308328938
 C          5.2291673374        0.3384104479       -1.9828788460
 C          5.5469496067        1.2346798071       -0.9728216656
 C          4.5605325236        1.6657202064       -0.1012669028
 H          4.7550859639        2.3603482769        0.6992953175
 H          6.5573172560        1.5935512249       -0.8602845837
 H          5.9973717696       -0.0020527302       -2.6592848253
 H          3.6799179507       -0.8257778905       -2.9111656409
 H          1.9196492523       -0.0508064759       -1.3521330491
 H          1.7157232440        0.8645462493        2.9469859080
 H          4.0140902806       -1.2219838677        1.3265277903
 H          3.4568988704       -3.4274771355        0.3412785210
 H          1.1123049376       -4.0954255267        0.0537871815
 C         -1.1463442493       -2.6081970833        0.7564475077
 H         -1.6521410161       -2.5821556120        1.7368480806
 C         -1.4398879078       -3.9724955261        0.1542154860
 C         -2.6648270758       -4.1959801235       -0.6801324704
 C         -1.3078221414       -4.2528605385       -1.3115923158
 H         -0.9268512398       -5.2173097641       -1.6140971017
 H         -1.0009648862       -3.4401976482       -1.9502475737
 H         -3.2143428513       -5.1161626249       -0.5499317424
 H         -3.2895941429       -3.3390232021       -0.8878575857
 H         -1.1678533462       -4.7777573228        0.8298616524
 O         -3.4512104219       -1.2062367464        1.6036549599
