  62
        -98.92774205
 C          2.5333938837        0.3467372373       -0.6084497487
 C          2.1648773296        0.8829459515        0.6494927303
 C          1.4732763081        2.1792305151        0.6157532627
 C          1.2537200373        2.7803411644       -0.5667703721
 C          0.4541837672        4.0359599312       -0.7703101119
 C         -1.0507048318        3.6967503715       -0.7397881066
 C         -1.8127193097        4.3054755098        0.4379857342
 H         -1.9662241296        5.3707320037        0.2499998139
 H         -2.7943737169        3.8280068155        0.4654924974
 C         -1.1480461612        4.1614016142        1.8109182218
 H         -0.3820365066        4.9298876713        1.9278195910
 H         -1.9152611379        4.3697710365        2.5596737070
 C         -0.5206664757        2.7940710810        2.1136677823
 H         -0.9711727545        2.0141410902        1.4982463890
 H         -0.7284966650        2.5441468351        3.1562480312
 C          1.0084773631        2.7429808975        1.9287850957
 H          1.4359674224        3.7383459657        2.0781717733
 H          1.4346397617        2.0801112109        2.6873386702
 H         -1.5192138682        4.0389261629       -1.6646375994
 H         -1.1563858458        2.6095359311       -0.7191758473
 H          0.7013755076        4.7617655621        0.0013684414
 H          0.7313162124        4.4469315563       -1.7416874909
 O          1.6743099394        2.2593557213       -1.7507834499
 C          2.2827211727        1.0164288776       -1.8023517700
 O          2.5598071664        0.6242906921       -2.9577853084
 H          0.5520464319       -1.0849113999       -0.8960531355
 C          0.8638396239       -1.8137058685       -0.1607602956
 C          2.2252013145       -1.9779759148        0.0981034242
 C          2.5848952603       -2.9586494838        1.0114980116
 C          1.6158374670       -3.7129174855        1.6572247529
 C          0.2708254308       -3.5004531893        1.4355053564
 C         -0.1068623830       -2.5206304753        0.5213267463
 N         -1.4655788626       -2.2159634468        0.3266965271
 S         -1.9676500456       -0.9824992471       -0.6874289820
 O         -1.7606267915       -1.3332577690       -2.0783036139
 O         -1.3893969549        0.2582809130       -0.2407077273
 C         -3.7117997759       -0.9977526388       -0.3208878464
 C         -4.5712382744       -1.7236934852       -1.1234138377
 C         -5.9210753987       -1.7507267235       -0.8094200882
 C         -6.3861412279       -1.0556857273        0.2967543802
 C         -5.5121873173       -0.3290212222        1.0917535839
 C         -4.1615604175       -0.2990528871        0.7831794697
 H         -3.4455295728        0.2562235632        1.3670325026
 H         -5.8770054201        0.2134200794        1.9489744199
 H         -7.4368839677       -1.0774494650        0.5389247501
 H         -6.6031253886       -2.3116146888       -1.4278672216
 H         -4.1662260735       -2.2375912176       -1.9804281978
 H         -2.0904040922       -3.0075860555        0.3431341310
 H         -0.4788254311       -4.0685254847        1.9631584108
 H          1.9239082189       -4.4706200330        2.3619628541
 H          3.6149774845       -3.1481016793        1.2513898019
 C          3.1277539860       -1.0552636163       -0.6924857035
 H          3.0273707915       -1.3498768988       -1.7524853773
 C          4.6217774361       -0.9544138717       -0.4220955810
 C          5.2713567112       -1.0868591328        0.9186109811
 C          5.5487852625       -2.1020857705       -0.1514723814
 H          6.5181517469       -2.0763812003       -0.6276612918
 H          5.1408001926       -3.0954890534       -0.0670268969
 H          4.6424927720       -1.3410502916        1.7558108283
 H          6.0516849334       -0.3828069752        1.1689186423
 H          5.0300007244       -0.1767497560       -1.0656138263
 O          2.3873823587        0.3032381319        1.7431959508
