  62
        -98.94158517
 C         -1.3346201294       -1.2355534103        0.3483344084
 C         -1.4297794499        0.0833675894        0.8473139392
 C         -2.2862866200        1.0212566696        0.1011471996
 C         -2.9012752496        0.5859612802       -1.0135328209
 C         -3.8557561395        1.3574095105       -1.8823452107
 C         -5.2632327297        1.4688984797       -1.2610757010
 C         -5.2976123602        1.6233926687        0.2591049591
 H         -6.3323271703        1.4871599282        0.5844013187
 H         -4.7091536001        0.8236263686        0.7127982188
 C         -4.8181478907        2.9730304785        0.7895940001
 H         -4.8395917810        2.9270148978        1.8811931801
 H         -5.5221541609        3.7471706985        0.4746485504
 C         -3.4206183707        3.4031521492        0.3478043308
 H         -3.1784801811        4.3281334889        0.8800661314
 H         -3.4192927805        3.6466523098       -0.7114481691
 C         -2.2982245005        2.4187542893        0.6707713305
 H         -1.3468314906        2.8760995897        0.3663168310
 H         -2.2367489808        2.2923331386        1.7574812904
 H         -5.8074554294        0.5545670397       -1.5079268417
 H         -5.7841667198        2.3069258798       -1.7263217106
 H         -3.9327959291        0.8171055411       -2.8282702410
 H         -3.4356932897        2.3365854307       -2.0968571599
 O         -2.7674883691       -0.6883980895       -1.4731380817
 C         -1.9605039790       -1.6158865797       -0.8375847620
 O         -1.8989936085       -2.7195318093       -1.4134950727
 O         -0.8243295803        0.4681679189        1.8855944096
 C         -0.4084783694       -2.2192296804        1.0468778480
 C          0.7699319210       -2.4505685795        0.1326731382
 C          1.1177001415       -3.6813703391       -0.4045675425
 C          2.1572750417       -3.7705524482       -1.3156970223
 C          2.8530772315       -2.6452792778       -1.7161403614
 C          2.5222478910       -1.4085451282       -1.1688067207
 C          1.5088820707       -1.3304041891       -0.2303682909
 H          1.2458591104       -0.3734663794        0.1905046597
 N          3.2162742308       -0.2513794678       -1.5393081997
 S          2.5804824803        1.2867322719       -1.3829609589
 O          1.1475775604        1.3179219017       -1.5625826893
 O          3.3536045904        2.0753438128       -2.3208330782
 C          3.0510108598        1.7546994010        0.2694144815
 C          2.1063891994        1.9677187501        1.2516301914
 C          2.5315060190        2.3181559794        2.5244572017
 C          3.8845478189        2.4517080596        2.7912254422
 C          4.8224672792        2.2396234605        1.7911899523
 C          4.4041457496        1.8878364112        0.5191940820
 H          5.0972227099        1.7232050719       -0.2888803479
 H          5.8746794191        2.3455150507        2.0006101727
 H          4.2085930285        2.7229053791        3.7836773825
 H          1.7952733387        2.4746899187        3.2965788416
 H          1.0574327595        1.8434623500        1.0288044710
 H          3.8331430011       -0.3441363571       -2.3315063596
 H          3.6416417818       -2.7167933071       -2.4495681112
 H          2.4158443321       -4.7307282179       -1.7361217728
 H          0.5649724416       -4.5645157794       -0.1302236932
 H         -0.0497925098       -1.6966882309        1.9453698184
 C         -1.1304465591       -3.4800994509        1.4649606370
 C         -0.5600423692       -4.3342811615        2.5566286966
 C         -1.7976435995       -3.5274332120        2.8057746768
 H         -2.7426264494       -4.0423991523        2.8921438862
 H         -1.7201703799       -2.6504290223        3.4316154274
 H         -0.6550963289       -5.4063489114        2.4755364559
 H          0.3599160206       -4.0061513515        3.0160717971
 H         -1.6338788788       -3.9700136005        0.6398499465
