  62
        -98.94302922
 C         -1.1952217125       -1.1338665147       -0.0787140400
 C         -1.7687872501       -0.2306822567        0.8503557169
 C         -2.6339147473        0.8151424530        0.2892041101
 C         -2.8184825285        0.8702198591       -1.0421130210
 C         -3.7106245320        1.8520509354       -1.7440373698
 C         -5.1298511571        1.2914201302       -1.9121243648
 C         -5.7202776841        0.7084350840       -0.6281401213
 H         -6.7327560996        0.3711124513       -0.8606175161
 H         -5.1459113345       -0.1754039370       -0.3410684416
 C         -5.7662469811        1.6888491608        0.5522365527
 H         -5.6700211123        2.7122333242        0.1875199658
 H         -6.7423798741        1.6081724298        1.0352240775
 C         -4.7128263605        1.4330737107        1.6317189770
 H         -4.7464648858        0.3831970923        1.9333123370
 H         -4.9727498818        2.0334277234        2.5076126897
 C         -3.2678089614        1.7799371167        1.2511818132
 H         -3.2266671177        2.7992714421        0.8620327562
 H         -2.6659647820        1.7313152319        2.1626422481
 H         -5.7751274940        2.0905594960       -2.2817694285
 H         -5.1030306441        0.5011036392       -2.6660476108
 H         -3.7412069557        2.7795884299       -1.1755118035
 H         -3.2912959944        2.0553161113       -2.7310827426
 O         -2.2399722498       -0.0026772756       -1.9060467397
 C         -1.4247907807       -1.0334316938       -1.4515097145
 O         -0.9703038150       -1.7555806246       -2.3590847369
 H          0.8902294356       -0.2217411897       -0.9898342189
 C          1.6028109875       -0.9501093818       -0.6262336497
 C          1.1617489800       -2.0362339005        0.1116303181
 C          2.1136942276       -2.9442239350        0.5693309702
 C          3.4579110669       -2.7624376297        0.3004903191
 C          3.8902398418       -1.6745768467       -0.4397746987
 C          2.9493567996       -0.7749324220       -0.9132904260
 N          3.3801029653        0.3602482306       -1.6479738368
 S          3.9642837471        1.5823382416       -0.6577032135
 O          4.0489451863        2.7642045925       -1.4854693217
 O          5.1924572192        1.1306064616       -0.0565977776
 C          2.7046363758        1.7789663853        0.5893717515
 C          2.7898165123        1.0410757023        1.7526995998
 C          1.7554669134        1.1187275807        2.6707617885
 C          0.6559078400        1.9205280129        2.4085898206
 C          0.5829175723        2.6513482254        1.2329369108
 C          1.6136989513        2.5775563912        0.3102616049
 H          1.5942415806        3.1321332066       -0.6150915097
 H         -0.2788996622        3.2667873135        1.0287154231
 H         -0.1550017873        1.9612283959        3.1178459437
 H          1.7998793747        0.5439967027        3.5815303079
 H          3.6593365003        0.4253901321        1.9168530440
 H          2.6452444628        0.7430058408       -2.2275909823
 H          4.9337945356       -1.5024445492       -0.6461483159
 H          4.1795052694       -3.4736554357        0.6718261242
 H          1.7931505019       -3.7967244794        1.1467178797
 C         -0.2970646132       -2.2244922279        0.4627894064
 H         -0.3821836136       -2.1473855566        1.5572747156
 C         -0.7787140754       -3.6018010741        0.0379993881
 C         -0.7660730717       -4.7504458719        1.0000760443
 C         -2.0667756244       -4.1256784139        0.5974229567
 H         -2.7296066022       -4.6713843864       -0.0570603427
 H         -2.5795569085       -3.5077162466        1.3204778724
 H         -0.5302683149       -5.7339149334        0.6229663364
 H         -0.4188623846       -4.5656824362        2.0055944057
 H         -0.5735547526       -3.8110702644       -1.0053300424
 O         -1.5678304826       -0.2996225611        2.0911281671
