  62
        -98.94608238
 C         -1.4194571965       -0.8563950745       -0.0911198688
 C         -2.5012834786       -0.8473274320        0.8273889664
 C         -3.4538920997        0.2629516301        0.7133812395
 C         -3.2446050696        1.2099833405       -0.2189309251
 C         -4.1531747429        2.3764921456       -0.4768523221
 C         -5.2096261719        2.0378724872       -1.5379257479
 C         -5.9392910970        0.7187565171       -1.2838723415
 H         -5.2280838419       -0.1047635074       -1.3793812824
 H         -6.6796571632        0.5987780144       -2.0777004735
 C         -6.6345803757        0.6308309046        0.0818539510
 H         -7.6350045515        0.2168568143       -0.0604718967
 H         -6.7542675289        1.6302392372        0.5016712942
 C         -5.9230249689       -0.2633961936        1.0988506155
 H         -5.7172940574       -1.2378396059        0.6489738983
 H         -6.6013946018       -0.4279287866        1.9402546634
 C         -4.6115229106        0.2888638557        1.6716303799
 H         -4.3191188561       -0.3505397070        2.5098259130
 H         -4.7725436876        1.2999405563        2.0520482762
 H         -4.7148890199        1.9746369463       -2.5098885635
 H         -5.9326311189        2.8546962264       -1.5773528369
 H         -3.5456973132        3.2113205694       -0.8314422369
 H         -4.6370191039        2.6642684809        0.4548090965
 O         -2.1919219823        1.1819280525       -1.0715502302
 C         -1.2508833543        0.1603463438       -1.0326735519
 O         -0.3504013498        0.2882924182       -1.8845143121
 O         -2.6631488103       -1.7399931476        1.7036954434
 C         -0.4396846169       -2.0061963532        0.0426611567
 C          0.7092772338       -1.6800272417        0.9712452907
 C          1.2815952875       -2.6800049148        1.7510288049
 C          2.3449931309       -2.3988277079        2.5882469091
 C          2.8655634438       -1.1190214985        2.6579713748
 C          2.2988769739       -0.1105859168        1.8872062986
 C          1.2275014148       -0.3971509143        1.0516585420
 H          0.7896153030        0.4015081466        0.4747460460
 N          2.7893550197        1.2012922792        1.9567351863
 S          2.8947900790        2.1430831072        0.5765337651
 O          3.8179223593        3.1963083497        0.9468143172
 O          1.5845229670        2.5747805861        0.1626446291
 C          3.6646620521        1.0751412764       -0.6258931063
 C          5.0180675726        0.8374311312       -0.4721461353
 C          5.6513937252       -0.0357026494       -1.3397919874
 C          4.9215723839       -0.6598955829       -2.3406605648
 C          3.5669896362       -0.4066064502       -2.4834425463
 C          2.9247455462        0.4689499342       -1.6195184765
 H          1.8697704427        0.6770658201       -1.7121327618
 H          2.9959402483       -0.8862357277       -3.2628047127
 H          5.4108361268       -1.3450265761       -3.0149484532
 H          6.7065680920       -0.2290757841       -1.2331486543
 H          5.5495823202        1.3537168618        0.3108700013
 H          3.6056251772        1.3148772562        2.5399051900
 H          3.6939611945       -0.8954167519        3.3123353061
 H          2.7751254175       -3.1825960569        3.1925882401
 H          0.8767478795       -3.6795194757        1.7098136368
 H         -1.0130956892       -2.8211791761        0.5073580347
 C          0.1121300576       -2.5031579118       -1.2805815288
 C          0.4747691492       -3.9472927777       -1.4450927322
 C         -0.7290625712       -3.3924881148       -2.1444700003
 H         -0.6951664826       -3.2506153977       -3.2140026485
 H         -1.7060991149       -3.6674048255       -1.7737823568
 H          1.3444935156       -4.1932915390       -2.0341364695
 H          0.3068650935       -4.6101827095       -0.6104241965
 H          0.7301336026       -1.7701610116       -1.7817986872
