  62
        -98.94049113
 C         -2.3515620036        0.0823347174       -0.2495289306
 C         -3.4780109144        0.3176910444       -1.0732423037
 C         -4.7311902912       -0.3166834643       -0.6446851224
 C         -4.7354682990       -1.0789002416        0.4645058611
 C         -5.9525316179       -1.7378338436        1.0450866325
 C         -6.6428270245       -0.8260106987        2.0692379248
 C         -6.8789809452        0.5989093913        1.5684069929
 H         -7.3972574131        1.1408340542        2.3624734205
 H         -5.9139969289        1.0897211259        1.4219896324
 C         -7.6948248482        0.6892100383        0.2712207835
 H         -8.2290856941       -0.2465882125        0.1035376013
 H         -8.4444830938        1.4753445463        0.3829636463
 C         -6.8721514624        1.0322054800       -0.9720057581
 H         -7.5645319721        1.2842318582       -1.7796476245
 H         -6.2627906394        1.9179809615       -0.7754302711
 C         -5.9515742800       -0.0801774016       -1.4894983326
 H         -5.5800688399        0.2263341638       -2.4717634420
 H         -6.5218119356       -1.0033642197       -1.6104771485
 H         -7.5964501307       -1.2788151986        2.3465681515
 H         -6.0175050507       -0.7748251741        2.9635152505
 H         -6.6427910993       -1.9865153588        0.2413661618
 H         -5.6406793602       -2.6575002629        1.5427323467
 O         -3.6275976193       -1.3002776776        1.2178544144
 C         -2.4102757334       -0.7228598452        0.8877360282
 O         -1.4806135982       -1.0017257748        1.6683395907
 O         -3.4351931438        1.0199364820       -2.1196596289
 C         -1.0279743242        0.7242328195       -0.6189471432
 C          0.0378136501       -0.3227322919       -0.8290977167
 C         -0.2503420485       -1.4329417711       -1.6198149062
 C          0.7051493829       -2.4022909577       -1.8527390028
 C          1.9766025905       -2.2772808572       -1.3203796342
 C          2.2759055728       -1.1727005600       -0.5331521921
 C          1.3085737047       -0.2066218829       -0.2898296866
 H          1.5717110798        0.6376454389        0.3250222845
 N          3.5503635337       -1.0207937740        0.0354189297
 S          4.1878598314        0.5369529986        0.1664504628
 O          3.7220557419        1.1341535771        1.3926422386
 O          3.9300133294        1.2803137366       -1.0459649631
 C          5.9274862421        0.1652501811        0.3005412541
 C          6.4460796933       -0.1730116648        1.5362636791
 C          7.7916726401       -0.4901559477        1.6336668012
 C          8.5916785614       -0.4651834954        0.5008402043
 C          8.0576104024       -0.1219439924       -0.7321182539
 C          6.7125336606        0.1954626040       -0.8368174330
 H          6.2559805758        0.4776328136       -1.7719116143
 H          8.6826853116       -0.0996749091       -1.6102241002
 H          9.6387015238       -0.7116220545        0.5800761524
 H          8.2110310116       -0.7543844108        2.5910244389
 H          5.7884142160       -0.1701801657        2.3899222948
 H          4.2269390796       -1.6775478576       -0.3285926758
 H          2.7260979439       -3.0312999226       -1.5070919964
 H          0.4625224509       -3.2591408874       -2.4633630619
 H         -1.2396343606       -1.5251919960       -2.0476813964
 H         -1.2037453893        1.2237302987       -1.5844543195
 C         -0.6479087677        1.7733744357        0.4046833043
 C          0.2029840857        2.9418649866        0.0096268811
 C         -1.2515590363        3.1412940671        0.3094236838
 H         -1.5261407024        3.6490927358        1.2218045494
 H         -1.9219189311        3.3300032243       -0.5165043101
 H          0.9352672707        3.3060891761        0.7152205015
 H          0.5267243128        2.9990513750       -1.0190387113
 H         -0.5080848506        1.3552851454        1.3961294763
