  62
        -98.94327811
 C         -2.3282068197       -0.5413291852        0.1110533372
 C         -3.3045418428       -0.2042691095        1.0842469505
 C         -4.2567407540        0.8451912086        0.7082751843
 C         -4.1418508344        1.4507307648       -0.4874965654
 C         -5.0179845223        2.5575706286       -1.0080690587
 C         -6.3214104963        2.0688965324       -1.6548902384
 C         -7.3745063967        1.5421969718       -0.6791180528
 H         -7.5433215531        2.2808638205        0.1050165759
 H         -8.3069981867        1.4417618219       -1.2381117115
 C         -7.0303559530        0.1863981153       -0.0467140224
 H         -7.9051193794       -0.4666212964       -0.0866910477
 H         -6.2432722867       -0.2981408504       -0.6291520021
 C         -6.5883247806        0.2621055865        1.4147771958
 H         -6.3348301596       -0.7473560845        1.7483866298
 H         -7.4160593518        0.6218750015        2.0298999251
 C         -5.3702691359        1.1622361661        1.6603024341
 H         -5.6547285764        2.2109157642        1.5775319539
 H         -5.0047233875        0.9766227315        2.6731110544
 H         -6.0796395945        1.2923350788       -2.3843091981
 H         -6.7512770795        2.9131001397       -2.1989269464
 H         -4.4345749038        3.0854695446       -1.7654522728
 H         -5.2493694489        3.2525619402       -0.2004652413
 O         -3.1709166823        1.1242826334       -1.3797554835
 C         -2.2556004933        0.1137992533       -1.1181577094
 O         -1.4551135954       -0.0874772015       -2.0524562282
 O         -3.3764205650       -0.7579298269        2.2130931462
 C         -1.3408360883       -1.6424187147        0.4621124580
 C          0.0170667048       -1.0382175125        0.7246022733
 C          0.3636778355       -0.6582163852        2.0176783622
 C          1.5948192068       -0.0858207277        2.2796920418
 C          2.5031491438        0.1274449250        1.2576564702
 C          2.1634437463       -0.2393326541       -0.0374571559
 C          0.9326411271       -0.8275597554       -0.2956892901
 H          0.6735551889       -1.0930371252       -1.3089146790
 N          3.0706895472        0.0014725861       -1.0855236026
 S          4.6218519485       -0.6216340796       -0.9363540292
 O          5.1113872684       -0.7621565299       -2.2905187356
 O          4.6352533708       -1.8152514228       -0.1219714960
 C          5.5308157289        0.6767831430       -0.1247327600
 C          6.2006100294        0.4145037867        1.0542704240
 C          6.9116993830        1.4371155640        1.6629000490
 C          6.9407827805        2.6966764321        1.0842604273
 C          6.2645040704        2.9431836718       -0.1014717330
 C          5.5529080245        1.9250129361       -0.7155634006
 H          5.0172312331        2.0739889280       -1.6383277134
 H          6.2892293182        3.9240767655       -0.5483240460
 H          7.4939482602        3.4912458186        1.5596823375
 H          7.4383097152        1.2474637359        2.5844017303
 H          6.1446519913       -0.5789383496        1.4698283456
 H          2.6884330197       -0.2024776588       -1.9978866978
 H          3.4633971509        0.5764766938        1.4529358740
 H          1.8501739759        0.1992735149        3.2889180619
 H         -0.3495439738       -0.8111090773        2.8153284767
 H         -1.7075077221       -2.0622187636        1.4086067657
 C         -1.3104199645       -2.7472675040       -0.5743750893
 C         -0.6616721487       -4.0527931502       -0.2274827037
 C         -2.1512851720       -3.9697720411       -0.3681408284
 H         -2.6149381237       -4.4270238399       -1.2294522340
 H         -2.7519061917       -4.0187294001        0.5282836618
 H         -0.0983326882       -4.5684722304       -0.9903169602
 H         -0.2492826297       -4.1549445318        0.7650203122
 H         -1.2081149496       -2.3872761422       -1.5904619544
