  62
        -98.93817651
 C         -2.7919591485       -0.2681033231        0.1393043393
 C         -2.4374789382        0.5812713160       -0.9381632808
 C         -2.3225007315        2.0134695853       -0.6157476241
 C         -2.5291925157        2.4315517660        0.6447411687
 C         -2.4243250706        3.8541530152        1.1117534956
 C         -1.0177704197        4.1838446319        1.6278702459
 C          0.1080889181        3.7862766684        0.6730717596
 H          1.0450718709        4.1329371435        1.1158978870
 H          0.1746010270        2.6967117801        0.6160932915
 C         -0.0266120262        4.3546123583       -0.7463380389
 H         -0.7094518394        5.2056536698       -0.7453546455
 H          0.9508831494        4.7208247658       -1.0665451378
 C         -0.4808273433        3.3311837041       -1.7890238929
 H         -0.2843971280        3.7439403720       -2.7825609118
 H          0.1189351422        2.4237799490       -1.6805468773
 C         -1.9648478781        2.9438733252       -1.7403785351
 H         -2.1987033632        2.4026169037       -2.6619749993
 H         -2.5806660167        3.8455517154       -1.7053604258
 H         -0.9682195698        5.2574418340        1.8214974183
 H         -0.8625075120        3.6593445070        2.5737748473
 H         -3.1398780994        3.9981123802        1.9236083410
 H         -2.6845504002        4.5179339121        0.2892982834
 O         -2.8464409214        1.5851067392        1.6590484926
 C         -2.9639753034        0.2256042234        1.4352357943
 O         -3.2419640115       -0.4385062440        2.4550194368
 O         -2.2327652722        0.1877888751       -2.1162216679
 C         -2.9244276056       -1.7791398403        0.0092329533
 C         -1.5835063684       -2.4101207648        0.2845627503
 C         -1.4316410569       -3.4420409031        1.2024897531
 C         -0.1760380303       -3.9424133975        1.5033024856
 C          0.9549455845       -3.4114779917        0.9076008002
 C          0.8087440029       -2.3938879078       -0.0218355404
 C         -0.4485598451       -1.9102957683       -0.3389697622
 H         -0.5414329056       -1.1055855125       -1.0546224228
 N          1.9738145224       -1.7757755931       -0.5744340244
 S          2.2461398003       -0.2950565448        0.2090187458
 O          1.9700965790       -0.4744107030        1.6133240776
 O          1.5290053761        0.7650755773       -0.4654846231
 C          3.9996728209       -0.0851207416       -0.0343759464
 C          4.4725070567        0.9169416484       -0.8580270309
 C          5.8409862735        1.0406801875       -1.0441874562
 C          6.7061243172        0.1624847956       -0.4102191224
 C          6.2150212630       -0.8401515964        0.4134105639
 C          4.8489955770       -0.9675781116        0.6047673266
 H          4.4203164229       -1.7245265619        1.2402835647
 H          6.8911705177       -1.5206769481        0.9053457686
 H          7.7700821027        0.2606478321       -0.5574675244
 H          6.2248237424        1.8203681173       -1.6822826773
 H          3.7619960323        1.5780182262       -1.3279197896
 H          1.8417230135       -1.5613688025       -1.5555129991
 H          1.9413235645       -3.7640391090        1.1604452984
 H         -0.0766072296       -4.7377475960        2.2261414107
 H         -2.3048953422       -3.8309863631        1.7059429175
 H         -3.6054864107       -2.0831958061        0.8201627926
 C         -3.5479018784       -2.2284946638       -1.3040762253
 C         -2.7877107351       -2.9528930593       -2.3702623160
 C         -3.7977817656       -3.6881231345       -1.5450875138
 H         -4.7284259932       -3.9840351951       -2.0045268506
 H         -3.4269439915       -4.3824257207       -0.8061833515
 H         -3.0215751219       -2.7169968080       -3.3970343233
 H         -1.7426057685       -3.1596850869       -2.2001418419
 H         -4.3136911847       -1.5398836431       -1.6446320229
