  62
        -98.94079994
 C          2.5691095158        1.3145249061        0.2775890503
 C          2.7596960849        0.4618160808       -0.8369296991
 C          3.5210072859       -0.7713668412       -0.5804372187
 C          3.9814908902       -1.0257141178        0.6568776358
 C          4.7227883306       -2.2656914139        1.0626818381
 C          3.7621427249       -3.3477532082        1.5747782195
 C          2.5693616889       -3.6053424562        0.6533548361
 H          1.9252486476       -2.7220094469        0.6399197890
 H          1.9835060335       -4.4134611242        1.0972056393
 C          2.9467536328       -3.9810928253       -0.7864437598
 H          2.3225808947       -4.8198774573       -1.1019137192
 H          3.9843546960       -4.3153571732       -0.8227911740
 C          2.7371726618       -2.8637296293       -1.8102063002
 H          1.7250552837       -2.4619053901       -1.7053725697
 H          2.8119615783       -3.3006939262       -2.8097965422
 C          3.7349815092       -1.7000791108       -1.7426099306
 H          3.5985586312       -1.0928787038       -2.6423562078
 H          4.7544057907       -2.0907841325       -1.7426180768
 H          3.3779856152       -3.0381223137        2.5494047598
 H          4.3249966268       -4.2732948983        1.7088676060
 H          5.4177386953       -2.0030723097        1.8620471609
 H          5.2874735806       -2.6400296269        0.2110893166
 O          3.7821756546       -0.1843218906        1.7026321720
 C          3.0634631597        0.9871182367        1.5442863363
 O          2.9423372012        1.6563385078        2.5894501554
 O          2.3270578033        0.6965601567       -1.9965580660
 C          1.7889134721        2.6202078674        0.2054574947
 C          0.3202217403        2.3253287719        0.3696744364
 C         -0.4103746428        2.8430762519        1.4315879456
 C         -1.7438342432        2.5083687177        1.5970189340
 C         -2.3715137548        1.6492421375        0.7126190973
 C         -1.6470009758        1.1235626309       -0.3493142389
 C         -0.3165513735        1.4689710787       -0.5194352064
 H          0.2449688868        1.0557239187       -1.3449728296
 N         -2.2720701568        0.2242064741       -1.2422513390
 S         -2.7251910519       -1.2445611081       -0.5512251936
 O         -1.8790877643       -1.5788458303        0.5727403762
 O         -2.7551269494       -2.1952667148       -1.6411838798
 C         -4.3891470091       -0.9405080191        0.0030456404
 C         -5.3411557850       -0.6225665514       -0.9459871186
 C         -6.6398769993       -0.3724785639       -0.5327827413
 C         -6.9628455574       -0.4462805255        0.8142537624
 C         -5.9963506253       -0.7709411688        1.7539649004
 C         -4.6947099039       -1.0210350568        1.3472875902
 H         -3.9078709423       -1.2707899684        2.0412002626
 H         -6.2492358883       -0.8286728599        2.8004933803
 H         -7.9741201421       -0.2502131730        1.1338456441
 H         -7.3944688500       -0.1204407082       -1.2603011364
 H         -5.0472290130       -0.5815315253       -1.9814732104
 H         -1.7044773557        0.0411310417       -2.0592685742
 H         -3.4074476724        1.3799352012        0.8401926998
 H         -2.2989305529        2.9170599937        2.4274877210
 H          0.0800944465        3.4936980203        2.1408927176
 H          2.1144386163        3.1953871576        1.0856061595
 C          2.1198050325        3.4429389056       -1.0337050723
 C          1.0990359366        3.8671597425       -2.0440827503
 C          1.6839733325        4.8768298128       -1.1064796382
 H          2.3749545683        5.6103119909       -1.4932120258
 H          1.0526590876        5.2404666995       -0.3095625959
 H          1.4007146259        3.8826608170       -3.0804937162
 H          0.0726432502        3.5707778112       -1.8945302600
 H          3.1075932776        3.2180212492       -1.4211306090
