  62
        -98.92436799
 C         -2.4914493886       -1.3024318308       -0.1240254843
 C         -2.3821449667        0.0127922716       -0.6371736495
 C         -3.6477115468        0.7596256723       -0.7849719291
 C         -4.8111425353        0.1735006491       -0.4596695074
 C         -6.2084589167        0.7303061331       -0.5711599237
 C         -6.4299436577        2.1810732491       -0.1201492348
 C         -5.5328076079        2.6476150917        1.0356049363
 H         -6.1574494934        3.0978927347        1.8093096630
 H         -5.0239457574        1.7927789642        1.4843189252
 C         -4.4968001189        3.6888235647        0.6047761340
 H         -4.9794325508        4.4079033125       -0.0607355942
 H         -4.1603295464        4.2359684849        1.4886419102
 C         -3.2507632276        3.1309054742       -0.0824234488
 H         -2.6332888322        2.5943923289        0.6435899150
 H         -2.6578692553        3.9751870687       -0.4425613007
 C         -3.5154525464        2.1781760004       -1.2596649160
 H         -4.3827213790        2.4927803246       -1.8351077996
 H         -2.6376950587        2.1973628600       -1.9114819833
 H         -6.2917026641        2.8508789133       -0.9677213492
 H         -7.4769373677        2.2620796062        0.1766520208
 H         -6.5344042241        0.6248726068       -1.6099160147
 H         -6.8283432266        0.0609667524        0.0299674670
 O         -4.8702955804       -1.1030100777        0.0163270816
 C         -3.7293089296       -1.8588501291        0.2042406079
 O         -3.9437137781       -2.9996335959        0.6643153116
 H          0.9986735564       -0.6329345230       -0.5432447888
 C          0.8118762246       -0.7582434037        0.5071486705
 C         -0.2686076953       -1.4900705400        0.9715809421
 C         -0.4761924223       -1.5455740095        2.3508531281
 C          0.3713802236       -0.9030338763        3.2315176397
 C          1.4688834918       -0.2038304630        2.7607989405
 C          1.6810404143       -0.1306268279        1.3908486222
 N          2.7714147131        0.5825858843        0.8670223367
 S          3.5564254809       -0.0775455997       -0.4750830456
 O          2.9458450357        0.4202843610       -1.6808672926
 O          3.6286042137       -1.5148897849       -0.3365468751
 C          5.1782281037        0.6420164995       -0.2885917966
 C          5.3869558106        1.9327103624       -0.7371049898
 C          6.6352264998        2.5088211753       -0.5630431208
 C          7.6482379724        1.7895051032        0.0537976677
 C          7.4246603961        0.4944605170        0.4964940311
 C          6.1780480802       -0.0873120273        0.3265926419
 H          5.9604173549       -1.0935511890        0.6468989912
 H          8.2150906303       -0.0632816593        0.9722375567
 H          8.6188580921        2.2403086125        0.1875880337
 H          6.8133367683        3.5142138717       -0.9090302850
 H          4.5720442025        2.4483711167       -1.2182295298
 H          3.4252623011        0.8844345085        1.5761969608
 H          2.1439531716        0.2885578892        3.4443860055
 H          0.1852702235       -0.9588115015        4.2935621145
 H         -1.3264876009       -2.0998849556        2.7253826257
 C         -1.2785583119       -2.1987897774        0.1051126481
 H         -1.6704002798       -3.0303070732        0.7128860164
 C         -0.8390517654       -2.8490803788       -1.2012428017
 C         -0.1885175646       -2.1587274188       -2.3607840576
 C          0.5742642019       -3.1825447505       -1.5735826617
 H          0.7603978970       -4.1411110173       -2.0361262279
 H          1.3792371525       -2.8448134254       -0.9386121205
 H         -0.5277560918       -2.4242331726       -3.3528229071
 H          0.0717158836       -1.1163915451       -2.2693808520
 H         -1.5804033583       -3.5940415429       -1.4851801016
 O         -1.2990383725        0.5566781246       -0.9679796471
