  62
        -98.94080223
 C         -2.5982759778       -1.3201975830        0.2178277363
 C         -2.3796497873       -0.2391231500       -0.6738222892
 C         -3.4626381178        0.7564178545       -0.7532191128
 C         -4.5755019359        0.5921764563       -0.0173029858
 C         -5.7251952624        1.5550236417        0.0336498085
 C         -5.5375044332        2.5824058505        1.1587861018
 C         -4.1589506636        3.2434236995        1.1695739042
 H         -3.4020158075        2.4915509858        1.4053083428
 H         -4.1531369690        3.9703432442        1.9846138962
 C         -3.7805333147        3.9450882063       -0.1422559358
 H         -3.3462806928        4.9188584195        0.0937117655
 H         -4.6760600645        4.1253005498       -0.7382000783
 C         -2.7517138975        3.1948396144       -0.9906220137
 H         -1.8859374002        2.9324542848       -0.3760525903
 H         -2.3984698057        3.8710788853       -1.7740969486
 C         -3.2570723578        1.9213053700       -1.6802226799
 H         -2.4896912179        1.6068105244       -2.3940554520
 H         -4.1723084991        2.1409249915       -2.2340918676
 H         -5.6815029027        2.0770858658        2.1164972451
 H         -6.3087664235        3.3481659302        1.0588166333
 H         -6.6397090905        0.9892441573        0.2192448483
 H         -5.8110041429        2.0619230487       -0.9254627319
 O         -4.7566902618       -0.4636301926        0.8156124577
 C         -3.7712609915       -1.4226914604        0.9735592897
 O         -4.0546778885       -2.3088045557        1.8038079764
 O         -1.3500468950       -0.0957705520       -1.3833762748
 C         -1.5561408835       -2.3995447166        0.4700826400
 C         -0.2280702569       -1.7491984455        0.7639537495
 C          0.0112846985       -1.2294202830        2.0322105512
 C          1.1967378411       -0.5765820426        2.3139876254
 C          2.1593709670       -0.4147440014        1.3328412513
 C          1.9190313153       -0.9098397886        0.0584879874
 C          0.7413063038       -1.5941057982       -0.2132428717
 H          0.5583799785       -1.9665881840       -1.2090539324
 N          2.8804502046       -0.7330390814       -0.9501246310
 S          3.6235564834        0.7635080035       -1.1053652186
 O          2.7870730680        1.8446579829       -0.6397393485
 O          4.0532361859        0.8280424107       -2.4856983327
 C          5.0641753406        0.6174087583       -0.0658708488
 C          5.9023805091       -0.4628709093       -0.2609911866
 C          7.0326862875       -0.5851698466        0.5310788100
 C          7.3068250486        0.3709945213        1.4976678186
 C          6.4578579958        1.4518140186        1.6791137377
 C          5.3248979735        1.5791434370        0.8903701984
 H          4.6336179341        2.3999514025        0.9992846482
 H          6.6723540441        2.1948385363        2.4304461479
 H          8.1872800084        0.2735329449        2.1129916647
 H          7.6952808359       -1.4243102981        0.3928140799
 H          5.6555111219       -1.1816537418       -1.0242419655
 H          2.5792662643       -1.0736369353       -1.8520724430
 H          3.0778844516        0.1096197902        1.5399245179
 H          1.3717156105       -0.1832070343        3.3039493991
 H         -0.7507555881       -1.3349025713        2.7925754788
 H         -1.8949183008       -2.9075774322        1.3868069334
 C         -1.4684038142       -3.4701523404       -0.6075371736
 C         -2.7185595198       -4.0318286060       -1.2148445724
 C         -1.7786315502       -3.2190076959       -2.0510338623
 H         -1.1841406025       -3.7307169732       -2.7943643657
 H         -2.0749703161       -2.2240810637       -2.3427211401
 H         -2.7770922642       -5.0957235993       -1.3878816467
 H         -3.6560321652       -3.5837936999       -0.9183117925
 H         -0.6720974697       -4.1789072757       -0.4003605064
