  62
        -98.93381760
 C         -1.9617870321       -0.7055945463       -0.3927422703
 C         -3.0972426899       -1.2831226969        0.2324815152
 C         -4.3792652383       -0.5892314665        0.0424050592
 C         -4.4061788954        0.5453760427       -0.6792759648
 C         -5.6138520844        1.4112206691       -0.9000033202
 C         -5.8933267721        2.2567757008        0.3589022449
 C         -7.2063166785        1.9198975181        1.0661298728
 H         -7.1898639141        2.4158831079        2.0389970193
 H         -8.0354688686        2.3429963684        0.4950491953
 C         -7.4914980714        0.4288955385        1.2710288843
 H         -8.2995928219        0.3577694200        2.0021805116
 H         -7.8724576397       -0.0027035691        0.3441889345
 C         -6.3100532229       -0.4195468094        1.7588605388
 H         -6.6883158758       -1.1433212552        2.4836436151
 H         -5.5809766152        0.2005865278        2.2809055736
 C         -5.5982731061       -1.2226064777        0.6541047653
 H         -5.2393768603       -2.1628174439        1.0831838245
 H         -6.3141610202       -1.4731617740       -0.1338092599
 H         -5.9114904044        3.3141197015        0.0902189374
 H         -5.0599617423        2.1246528775        1.0523236222
 H         -6.4728809596        0.7893093003       -1.1422213966
 H         -5.3990914374        2.0575097118       -1.7514021969
 O         -3.2945506118        1.0863909299       -1.2382004750
 C         -2.0452465163        0.4876198252       -1.1120494028
 O         -1.1340326681        1.1151525665       -1.6813480969
 O         -3.0397798849       -2.3368477302        0.9208711153
 C         -0.6305332041       -1.4113306573       -0.1971607824
 C          0.4143181116       -0.4303786775        0.2674197306
 C          0.3900249449        0.0111515557        1.5869724458
 C          1.3167886746        0.9295183276        2.0435280724
 C          2.2863964456        1.4289827885        1.1922950658
 C          2.3168416072        0.9969469555       -0.1268717626
 C          1.3947865224        0.0622233676       -0.5792517049
 H          1.4162108297       -0.2502129094       -1.6115039971
 N          3.2963929158        1.5055945704       -0.9969307240
 S          4.8851820946        1.5038518855       -0.4781422754
 O          5.1036709372        2.5988641717        0.4336933383
 O          5.6815372404        1.5159498868       -1.6848302255
 C          5.0741792472       -0.0483717047        0.3807426348
 C          5.0161284557       -1.2096285209       -0.3645755774
 C          5.1028303460       -2.4293907194        0.2858616714
 C          5.2400713564       -2.4669967358        1.6652908933
 C          5.2994067734       -1.2926596639        2.3989509780
 C          5.2142646952       -0.0692793243        1.7531539770
 H          5.2583913235        0.8664032247        2.2858029653
 H          5.4081929828       -1.3254499494        3.4710131002
 H          5.3022505340       -3.4180144727        2.1703194673
 H          5.0598520062       -3.3446781841       -0.2825156440
 H          4.9167341921       -1.1413045593       -1.4360300429
 H          3.2131865231        1.1719524161       -1.9454576989
 H          3.0085035154        2.1574576525        1.5238344402
 H          1.2827419099        1.2642459720        3.0692067318
 H         -0.3740427114       -0.3699982371        2.2505164945
 H         -0.8212738696       -2.1184494383        0.6262818861
 C         -0.1752540776       -2.2487386408       -1.3831127327
 C         -1.1713344864       -3.0015684187       -2.2121057916
 C         -0.4137598769       -1.8553534332       -2.8090211337
 H          0.3567132670       -2.0755494397       -3.5341588734
 H         -0.9380074525       -0.9322757211       -3.0000280288
 H         -0.9270050552       -4.0039305150       -2.5298138652
 H         -2.2175229412       -2.8574124547       -1.9844499310
 H          0.7600161025       -2.7592456734       -1.1732313112
