  62
        -98.93938112
 C         -2.4746340201       -1.0533761502        0.3706963590
 C         -2.5343931500        0.1450040893        1.1306675298
 C         -3.7252315698        0.9833919996        0.9446488004
 C         -4.6893031599        0.5725342103        0.1011444300
 C         -5.9389517997        1.3398555807       -0.2179924295
 C         -5.7360734896        2.2529068815       -1.4349832188
 C         -4.4730770195        3.1107643213       -1.3586591781
 H         -3.5957852996        2.4605820612       -1.3995146186
 H         -4.4500455093        3.7368781619       -2.2532006477
 C         -4.3844337894        3.9998614104       -0.1104046175
 H         -4.0613102793        4.9979566406       -0.4134741168
 H         -5.3709291294        4.1020425402        0.3431509925
 C         -3.3906146895        3.5134288895        0.9464702122
 H         -2.4213790995        3.3181036997        0.4792581421
 H         -3.2452743295        4.3179401590        1.6725873628
 C         -3.8075833697        2.2620723590        1.7297637213
 H         -4.8116066397        2.4001875589        2.1366144013
 H         -3.1105728698        2.1457970684        2.5650543012
 H         -5.6720110196        1.6289767422       -2.3292315693
 H         -6.6108831295        2.8982942417       -1.5319077184
 H         -6.7330695898        0.6249457509       -0.4393265600
 H         -6.2260485797        1.9308204501        0.6495103009
 O         -4.6085793600       -0.5859265192       -0.5964950508
 C         -3.5041642501       -1.4208961494       -0.4968017013
 O         -3.5870664002       -2.4316033589       -1.2213093620
 O         -1.6329190200        0.4918947986        1.9425732101
 C         -1.2429469902       -1.9204582505        0.5674200084
 C         -0.2240100701       -1.7192959498       -0.5297002014
 C         -0.5094065001       -2.0288992788       -1.8555726016
 C          0.4491022100       -1.8478669083       -2.8355576814
 C          1.7040707400       -1.3611200187       -2.5157098910
 C          2.0032032600       -1.0575468796       -1.1922568008
 C          1.0375735099       -1.2365214702       -0.2112468310
 H          1.2732173399       -0.9779995710        0.8102308992
 N          3.2904186300       -0.6149674700       -0.8420505004
 S          3.4925730901        0.4808776190        0.4251102404
 O          3.3223728200       -0.2149633518        1.6753002499
 O          2.6658766103        1.6484003193        0.2128248311
 C          5.2141672902        0.8866291490        0.1993457207
 C          6.1633611800       -0.0204860315        0.6317181001
 C          7.5042556101        0.2678341985        0.4349178404
 C          7.8721964503        1.4517357989       -0.1873992888
 C          6.9087407304        2.3535206293       -0.6132664382
 C          5.5653336204        2.0703604794       -0.4209329284
 H          4.7817974505        2.7442944897       -0.7283669580
 H          7.1978788505        3.2745634396       -1.0932909975
 H          8.9166380403        1.6741663689       -0.3387554685
 H          8.2562382000       -0.4294822418        0.7672665599
 H          5.8299619099       -0.9222891618        1.1180279295
 H          3.8352913801       -0.3370789295       -1.6475357902
 H          2.4495074701       -1.2212649182       -3.2839077509
 H          0.2146785800       -2.0857594775       -3.8622845316
 H         -1.4902724701       -2.4002430485       -2.1090117819
 H         -0.7900119702       -1.5613334212        1.5024042687
 C         -1.5577765404       -3.3958647605        0.7270312074
 C         -0.5526751005       -4.2779128611        1.4022579468
 C         -1.8399819205       -3.9421834015        2.0925767270
 H         -2.5898202306       -4.7122722215        2.1936166964
 H         -1.8082686405       -3.2514930021        2.9230145675
 H         -0.4155566607       -5.2812016109        1.0295274461
 H          0.3530619695       -3.8144247115        1.7648003972
 H         -2.1185905104       -3.8087990899       -0.1009650029
