  62
        -98.94220657
 C          2.5529770751        0.2637500858        0.6045388194
 C          2.2089701690       -0.2610145984       -0.6661060789
 C          2.1006095223       -1.7244434753       -0.7447407540
 C          2.2886076481       -2.4737759021        0.3558430225
 C          2.2591726066       -3.9767971984        0.4271452751
 C          0.8521804648       -4.5712461468        0.5706347411
 C         -0.0036464611       -4.5199641688       -0.6950565231
 H          0.5594290001       -4.9344113783       -1.5321713050
 H         -0.8656358324       -5.1684653348       -0.5266846198
 C         -0.5089071390       -3.1171593526       -1.0581103786
 H         -0.4429131815       -2.4575072466       -0.1889101118
 H         -1.5678290500       -3.1630479697       -1.3252437096
 C          0.2125768820       -2.4551240357       -2.2318838201
 H         -0.2061066087       -1.4518942593       -2.3482785756
 H          0.0108899120       -3.0151535233       -3.1487221138
 C          1.7322846850       -2.3317362349       -2.0646101862
 H          2.2014831636       -3.3101458807       -2.1752569670
 H          2.1080669341       -1.6709702700       -2.8502272735
 H          0.9681991213       -5.6169162303        0.8653475730
 H          0.3332041605       -4.0503110688        1.3788165571
 H          2.7429875708       -4.3936698127       -0.4568695898
 H          2.8421809724       -4.2549231764        1.3079657380
 O          2.5675602802       -1.9285389081        1.5701431475
 C          2.6774516929       -0.5570491272        1.7272719393
 O          2.8936303725       -0.1945794749        2.9023171273
 O          2.0220822529        0.4419034095       -1.6935860129
 C          2.6821862415        1.7590218585        0.8442960044
 C          1.5239860489        2.4747405124        0.1926787259
 C          1.6561362047        3.5672624449       -0.6532653920
 C          0.5352653631        4.1496388909       -1.2200569596
 C         -0.7279372916        3.6455552375       -0.9740916176
 C         -0.8708501823        2.5543965792       -0.1242509709
 C          0.2479544238        2.0004484581        0.4721954997
 H          0.1319336475        1.1519045646        1.1309605033
 N         -2.1446543128        2.0101934421        0.1557446648
 S         -2.3165541418        0.3420044348       -0.0777289234
 O         -1.5707750647       -0.3666170434        0.9310799105
 O         -2.0340913405        0.0092343072       -1.4559820672
 C         -4.0622568288        0.1696127993        0.2423763007
 C         -4.5014186464        0.3124993103        1.5447797216
 C         -5.8577995122        0.2116491480        1.8092509490
 C         -6.7474957276       -0.0294433192        0.7724508639
 C         -6.2915713169       -0.1728755636       -0.5290147760
 C         -4.9357378885       -0.0710197400       -0.8003247530
 H         -4.5334779683       -0.1791041103       -1.7947955440
 H         -6.9849671069       -0.3628332056       -1.3323428023
 H         -7.8026767653       -0.1079384186        0.9813733848
 H         -6.2155578344        0.3210146769        2.8203224661
 H         -3.7716009932        0.4917134164        2.3172420005
 H         -2.8666730607        2.4777081715       -0.3797327278
 H         -1.5974832890        4.0848258491       -1.4402729645
 H          0.6502528166        4.9960865012       -1.8803443044
 H          2.6354085908        3.9486928997       -0.8915284961
 H          2.5739443581        1.8783246809        1.9359008101
 C          4.0410204459        2.3381040902        0.4782092785
 C          5.2633715585        1.4721555866        0.4245128445
 C          4.7010015265        2.0531298157       -0.8361929417
 H          5.2471600562        2.8503483186       -1.3190353166
 H          4.1826233286        1.3996229912       -1.5195570016
 H          6.1897086305        1.8713297201        0.8096613623
 H          5.1354390726        0.4141205807        0.6031701384
 H          4.1810719366        3.3333502876        0.8887891529
