  62
        -98.93870586
 C          2.0169870121        1.4201159587        0.2272472287
 C          1.8184012922        0.4331592705       -0.7682998572
 C          2.6277006403       -0.7898877985       -0.6310911393
 C          3.4708702358       -0.9077356487        0.4106830797
 C          4.2884335273       -2.1259557348        0.7344610656
 C          3.3910473923       -3.2073464147        1.3702717131
 C          3.2376071978       -4.4751736201        0.5297031142
 H          4.1524223564       -5.0660813389        0.6098346155
 H          2.4275775174       -5.0618444506        0.9688026695
 C          2.9477012241       -4.2595195106       -0.9587401358
 H          2.6079941481       -5.2180776157       -1.3565966242
 H          3.8739589498       -4.0162517805       -1.4813866392
 C          1.8994661094       -3.1900635718       -1.2925199335
 H          1.3064293451       -3.5555652369       -2.1335140659
 H          1.2133961631       -3.0524871733       -0.4558881954
 C          2.4847977938       -1.8276335800       -1.7103194222
 H          3.4526730568       -1.9825872419       -2.1948808899
 H          1.8198646050       -1.3683450184       -2.4479710709
 H          2.4062917609       -2.7719525156        1.5554035540
 H          3.7946753042       -3.4896511809        2.3439528389
 H          4.7606721842       -2.5037879525       -0.1696524877
 H          5.0672164565       -1.8196097436        1.4331495617
 O          3.6171605227        0.0559028801        1.3577322718
 C          2.9009870195        1.2413525717        1.2894861925
 O          3.1292033873        2.0360600437        2.2246399646
 H         -0.0246503039        0.9488578604        1.7041304242
 C         -0.7262910801        1.4745647135        1.0672354489
 C         -0.2500899010        2.4400854767        0.1892233844
 C         -1.1639316644        3.1068818700       -0.6164479005
 C         -2.5140902269        2.8078760928       -0.5440426984
 C         -2.9823223148        1.8395264076        0.3243742138
 C         -2.0755263781        1.1649062727        1.1324341151
 N         -2.5342356495        0.1595199881        2.0004827410
 S         -3.6356490053       -0.9453296602        1.3912355456
 O         -4.9698047648       -0.4149639143        1.5287351688
 O         -3.3741103136       -2.1732965794        2.1107306265
 C         -3.2431854460       -1.1333622317       -0.3391105811
 C         -1.9497675968       -1.4612278350       -0.6931238635
 C         -1.6331634224       -1.5878111182       -2.0349002437
 C         -2.6126666282       -1.3911584522       -2.9958717160
 C         -3.9095089995       -1.0718984976       -2.6251291824
 C         -4.2298944768       -0.9374061910       -1.2839461273
 H         -5.2218899356       -0.6792565108       -0.9502586909
 H         -4.6687869109       -0.9204808559       -3.3753992582
 H         -2.3587721809       -1.4847287824       -4.0398801950
 H         -0.6197641795       -1.8157117338       -2.3205632107
 H         -1.2027363702       -1.6041650122        0.0720829057
 H         -1.7994382868       -0.3056249646        2.5126266705
 H         -4.0301967285        1.5956635047        0.3936619389
 H         -3.2119861881        3.3344447980       -1.1765247385
 H         -0.8187500046        3.8596073970       -1.3056112109
 C          1.2337917256        2.7190008353        0.1673295035
 H          1.4881862793        3.2697400716        1.0852569614
 C          1.6749390060        3.5375623486       -1.0287098754
 C          1.6390217231        5.0345612499       -0.9768943366
 C          2.9525756202        4.3146121413       -0.9371717333
 H          3.5941623312        4.3584304395       -1.8044135516
 H          3.4892620195        4.2758207553        0.0000547258
 H          1.2885251687        5.4965565286       -0.0662498251
 H          1.3816230384        5.5762590200       -1.8745710801
 H          1.4519529025        3.0499518175       -1.9705087191
 O          1.0089022424        0.5624976026       -1.7210052497
