  62
        -98.94591238
 C         -2.1203137395       -1.4911583403       -0.0098368710
 C         -1.8392319697       -0.3648127100       -0.8204186207
 C         -2.9023516698        0.6485239799       -0.8910258503
 C         -4.0592310997        0.4400481495       -0.2366178303
 C         -5.1985189199        1.4151219393       -0.1774337100
 C         -5.0694489899        2.3430970590        1.0388725603
 C         -3.6865706700        2.9776656991        1.1890550804
 H         -3.7247477101        3.6344215189        2.0608389906
 H         -2.9564102299        2.1952250092        1.4087398101
 C         -3.2181822402        3.7780402796       -0.0341450094
 H         -2.7891570803        4.7212911495        0.3101319409
 H         -4.0732740803        4.0231978596       -0.6652350293
 C         -2.1472758501        3.0811889300       -0.8757779896
 H         -1.3338776501        2.7453589599       -0.2277228798
 H         -1.7358569803        3.8153769002       -1.5734661594
 C         -2.6273581300        1.8823005701       -1.7034882100
 H         -3.5047767601        2.1642692102       -2.2888573898
 H         -1.8264472800        1.6097147305       -2.3967909101
 H         -5.8251481601        3.1265614889        0.9569102406
 H         -5.2794116598        1.7626235187        1.9403812901
 H         -5.2186896500        2.0008597396       -1.0942856098
 H         -6.1300643298        0.8523327692       -0.0965641301
 O         -4.3060287096       -0.6750189308        0.4980958093
 C         -3.3384442294       -1.6543312207        0.6495246290
 O         -3.6766216592       -2.6057270009        1.3827596787
 H          1.5024635406       -2.5025846595       -0.8431204615
 C          1.4047213406       -1.9814233198        0.0959714087
 C          0.1809499906       -1.9394167802        0.7420168387
 C          0.0899316906       -1.2519461706        1.9502243290
 C          1.1939509005       -0.6242389106        2.4933639591
 C          2.4137754005       -0.6587644902        1.8392471290
 C          2.5131287405       -1.3369727198        0.6326558088
 N          3.7403972305       -1.3604842295       -0.0487661313
 S          4.6380525703        0.0489833507       -0.1124292309
 O          5.4149921003       -0.0571671989       -1.3282985009
 O          5.4021264304        0.1894690904        1.1032986091
 C          3.4641565101        1.3881626505       -0.2376155404
 C          2.4685133801        1.3173050807       -1.1911757804
 C          1.5603229799        2.3579880406       -1.2905564200
 C          1.6654557398        3.4504613804       -0.4438959397
 C          2.6748009499        3.5104904502        0.5044980003
 C          3.5822738200        2.4692123403        0.6126596299
 H          4.3761756801        2.4701969102        1.3420584099
 H          2.7541325598        4.3617151800        1.1615175805
 H          0.9547608097        4.2580869703       -0.5238079194
 H          0.7661578499        2.2950332707       -2.0164050900
 H          2.3926642902        0.4585326809       -1.8377783506
 H          3.7027547205       -1.8110821292       -0.9512285114
 H          3.2858257205       -0.1738734702        2.2473311691
 H          1.1061351505       -0.0977756509        3.4316686293
 H         -0.8663876094       -1.2136772109        2.4547287790
 C         -1.0676475893       -2.5703493302        0.1761055586
 H         -1.4712719492       -3.2656158605        0.9256362584
 C         -0.8497702393       -3.3242255298       -1.1186992616
 C         -0.2867295991       -4.7127547997       -1.0928347221
 C         -1.7300527891       -4.4948376498       -1.4323256119
 H         -2.0485392092       -4.6419114196       -2.4535031320
 H         -2.4774534691       -4.7640547201       -0.7002122320
 H         -0.0509366090       -5.1382355200       -0.1291185222
 H          0.3839972609       -5.0148671994       -1.8832246322
 H         -0.5760237494       -2.6748509695       -1.9423157214
 O         -0.7622006897       -0.2100896797       -1.4512394307
