  62
        -98.94118978
 C         -1.8402577299       -0.5445836998       -0.0095553503
 C         -2.5525268201       -0.0325764096        1.1048766595
 C         -3.6781077303        0.8610623101        0.8031319292
 C         -3.9232837203        1.1969199296       -0.4761942609
 C         -5.0760416404        2.0406883092       -0.9353348213
 C         -6.2973821202        1.1722104289       -1.2692945411
 C         -6.6532482500        0.1593917391       -0.1807372208
 H         -5.8505409499       -0.5775822207       -0.1029981605
 H         -7.5464200799       -0.3740695612       -0.5129110607
 C         -6.9102413903        0.7760538095        1.2014337090
 H         -7.8090285402        0.3232928594        1.6253593691
 H         -7.1032755105        1.8446625994        1.1000566487
 C         -5.7828202703        0.5589359801        2.2124204691
 H         -5.5250809101       -0.5026132199        2.2512974095
 H         -6.1536231104        0.8412558703        3.2013437490
 C         -4.4983590405        1.3584167303        1.9599302890
 H         -3.8628258505        1.2548709607        2.8444484891
 H         -4.7415621407        2.4155226202        1.8340490686
 H         -6.0904876400        0.6246874086       -2.1918084909
 H         -7.1495850003        1.8300840886       -1.4490495513
 H         -4.7704976605        2.5832713890       -1.8315853214
 H         -5.3288454706        2.7580524094       -0.1568251615
 O         -3.1624846701        0.7617301795       -1.5110110507
 C         -2.1074185099       -0.1230258602       -1.3133912904
 O         -1.5095216998       -0.4317208304       -2.3594743903
 O         -2.2570555001       -0.3093088891        2.2985864396
 C         -0.7069434497       -1.5153721894        0.2703304201
 C          0.5407125402       -1.0913277594       -0.4617944499
 C          1.1772012105       -1.8690967395       -1.4189015096
 C          2.3170548604       -1.4055711495       -2.0534973097
 C          2.8505171501       -0.1692056493       -1.7426319601
 C          2.2275656999        0.6125512509       -0.7773014603
 C          1.0879732300        0.1460815809       -0.1419070903
 H          0.5988117898        0.7596499510        0.6051145095
 N          2.7786759896        1.8614259311       -0.4389459307
 S          4.4282739996        1.9158296516       -0.1537267106
 O          4.6187389093        3.0109465419        0.7717103491
 O          5.1347588796        2.0221915314       -1.4058000106
 C          4.8109427499        0.3576712619        0.6272816099
 C          4.2080603998        0.0743806822        1.8369625400
 C          4.4523614201       -1.1496446176        2.4375017104
 C          5.2906872503       -2.0656784976        1.8203121007
 C          5.8936923503       -1.7636450578        0.6094756306
 C          5.6512067201       -0.5413330681        0.0031717702
 H          6.0961741401       -0.2672210783       -0.9393501998
 H          6.5469280205       -2.4769719279        0.1335491309
 H          5.4745132205       -3.0199498574        2.2880488910
 H          3.9843018601       -1.3855871174        3.3797891704
 H          3.5649424296        0.8101737622        2.2930977397
 H          2.2682516594        2.3535457712        0.2792172191
 H          3.7288375801        0.2113429408       -2.2383927501
 H          2.7938285206       -2.0146421296       -2.8061018695
 H          0.7657330207       -2.8272311597       -1.6892775094
 H         -0.5164591098       -1.3997721990        1.3506923201
 C         -1.0699167994       -2.9767967796        0.0538365806
 C         -2.4822758493       -3.4508739398        0.2179578006
 C         -1.8453591092       -3.4495600701       -1.1377488494
 H         -1.5787025689       -4.3997597502       -1.5771395990
 H         -2.1602764593       -2.7103512304       -1.8571790896
 H         -2.6542197991       -4.3973407997        0.7081262909
 H         -3.2381113995       -2.7075993099        0.4276397803
 H         -0.2962724492       -3.6424034293        0.4238998008
