  62
        -98.94394799
 C         -1.7110622030       -1.4499856800        0.5114269795
 C         -2.5914451577       -0.9813152602       -0.4947615857
 C         -3.4463662855        0.1561449461       -0.1159894993
 C         -3.3020019925        0.7242104233        1.0942750877
 C         -4.0806382723        1.9087657655        1.5878975730
 C         -3.3756000879        3.2306983170        1.2544666705
 C         -2.9258698672        3.3393217833       -0.2021113907
 H         -2.4662220657        4.3223500318       -0.3250336361
 H         -2.1560777108        2.5890388304       -0.3941603128
 C         -4.0526338557        3.1707906351       -1.2303283735
 H         -5.0209117818        3.3142016594       -0.7492884704
 H         -3.9521797400        3.9465871559       -1.9921726338
 C         -4.0424646914        1.8258162102       -1.9587801541
 H         -3.0452490175        1.6331424714       -2.3618906846
 H         -4.7308217639        1.8924389991       -2.8054683796
 C         -4.4663201465        0.6124745663       -1.1216978599
 H         -5.4204789279        0.8190178848       -0.6321711267
 H         -4.6073289089       -0.2283293339       -1.8069924673
 H         -4.0548994623        4.0517228375        1.4908716083
 H         -2.4958990086        3.3269760758        1.8953761196
 H         -5.0724186209        1.8929195558        1.1396810603
 H         -4.1822203718        1.8242730213        2.6713665617
 O         -2.3856643192        0.2995798992        2.0025336219
 C         -1.5809616182       -0.7938518298        1.7389391315
 O         -0.7949955501       -1.0840098279        2.6644401624
 H          1.5150598689       -1.9961881154        1.4836043415
 C          1.5674896101       -1.8436790638        0.4137850216
 C          0.4634258314       -2.1539112697       -0.3681154789
 C          0.5265425052       -1.9164043267       -1.7366102014
 C          1.6750576051       -1.3904179446       -2.3016044041
 C          2.7745892864       -1.0811055338       -1.5194166758
 C          2.7137074792       -1.3032180110       -0.1500614342
 N          3.8091850958       -0.9537205820        0.6619992122
 S          4.4353882389        0.5826286250        0.4408153239
 O          5.3790592563        0.5631038642       -0.6490629008
 O          4.9724312301        0.9702187648        1.7264557518
 C          3.0431785207        1.6123094136        0.0034684082
 C          1.9340151006        1.6143343481        0.8263070494
 C          0.8462866920        2.3994200246        0.4815607426
 C          0.8869918837        3.1713425717       -0.6693651800
 C          2.0096022709        3.1622926144       -1.4820661349
 C          3.0976831968        2.3728434144       -1.1467030163
 H          3.9865892469        2.3277210225       -1.7546882928
 H          2.0372877765        3.7636741431       -2.3762992303
 H          0.0373104800        3.7809902722       -0.9327950716
 H         -0.0293426269        2.3949863444        1.1123886634
 H          1.9178526060        1.0085794271        1.7189470293
 H          3.6553365816       -1.1371224495        1.6432826799
 H          3.6734582734       -0.6642847638       -1.9446249620
 H          1.7134973108       -1.2113256506       -3.3652038280
 H         -0.3391462863       -2.1184075836       -2.3471643590
 C         -0.7896654128       -2.6463120514        0.3133434072
 H         -0.5090613346       -2.9741924902        1.3235778842
 C         -1.4379409939       -3.8132765846       -0.3995904392
 C         -0.7899049406       -5.1607744687       -0.3054374033
 C         -2.0795670585       -4.8973406952        0.4108758440
 H         -2.9826397225       -5.3544533641        0.0352410382
 H         -2.0554283828       -4.8023104826        1.4870587427
 H         -0.8046759635       -5.8015560924       -1.1735040788
 H          0.1104061940       -5.2426528393        0.2852066418
 H         -1.9169876037       -3.5476023121       -1.3314587437
 O         -2.6860801287       -1.4752398816       -1.6474536787
