  62
        -98.94206750
 C          0.5998668604        1.4506627378        0.0489021770
 C          1.3962683079        0.8606664463        1.0541613746
 C          2.4355161353       -0.0884435793        0.6104816559
 C          2.5343199171       -0.3715439959       -0.7020765023
 C          3.5647707491       -1.2208296870       -1.3974653571
 C          4.9225516899       -0.5099153795       -1.5205107945
 C          5.3982991906        0.1926657010       -0.2516719935
 H          6.3183096329        0.7307023814       -0.4952521453
 H          4.6579587635        0.9377510050        0.0453520506
 C          5.6951858235       -0.7268827564        0.9308603874
 H          6.4571879023       -1.4526987693        0.6384649940
 H          6.1170122943       -0.1059576922        1.7253919065
 C          4.4973220057       -1.4847857307        1.5083574022
 H          4.2443172191       -2.3430635820        0.8918203549
 H          4.8012104787       -1.8809276060        2.4818659745
 C          3.2611115899       -0.6252641161        1.7549337425
 H          2.5607505265       -1.1883951116        2.3845673032
 H          3.5459864367        0.2451985219        2.3571146993
 H          4.8402456452        0.2444742536       -2.3066479116
 H          5.6677212604       -1.2432214610       -1.8333615847
 H          3.6777526613       -2.1735678263       -0.8908206367
 H          3.1835390783       -1.4137992619       -2.4020068180
 O          1.6881177221        0.1634876203       -1.6276556160
 C          0.7191839668        1.0891679447       -1.2922241823
 O          0.0444332228        1.5051460579       -2.2528080388
 H         -1.5300294372        0.0927267309        0.5371787280
 C         -2.2120200431        0.8130569109        0.1091652416
 C         -1.8015732863        2.1323955270       -0.0333752106
 C         -2.6947529694        3.0519747749       -0.5685484183
 C         -3.9608756443        2.6516953199       -0.9584921420
 C         -4.3639485347        1.3373313709       -0.8181003803
 C         -3.4784599781        0.4089916515       -0.2798078818
 N         -3.8460267589       -0.9346787040       -0.1609435673
 S         -3.0737915995       -2.0039087215        0.8483201897
 O         -3.9389922962       -3.1651674485        0.8540099420
 O         -2.7939412150       -1.4282456834        2.1434112548
 C         -1.5649640139       -2.4270241317        0.0061749187
 C         -0.4033989023       -2.5782286360        0.7358846379
 C          0.7470617738       -2.9964186663        0.0872845035
 C          0.7168297948       -3.2498907107       -1.2747877578
 C         -0.4536428120       -3.0781730445       -1.9967627223
 C         -1.6092840752       -2.6690764874       -1.3520788285
 H         -2.5379696195       -2.5341464147       -1.8811095207
 H         -0.4695774082       -3.2649474295       -3.0584797417
 H          1.6105720878       -3.5831598582       -1.7774942433
 H          1.6573745960       -3.1236252971        0.6505329898
 H         -0.4191091581       -2.3578189265        1.7923669931
 H         -4.8105257754       -1.1608056565       -0.3462225848
 H         -5.3503709133        1.0256698931       -1.1250873662
 H         -4.6443827068        3.3749371108       -1.3767169541
 H         -2.3998018175        4.0819808403       -0.6833847033
 C         -0.4172597612        2.5072240384        0.4328389626
 H         -0.4240511667        2.5232553622        1.5338929220
 C          0.0390486021        3.8623813152       -0.0709675086
 C         -0.2828191612        5.1093021634        0.6957265089
 C          1.1199172540        4.5832453169        0.6755100956
 H          1.8672919986        5.1211071990        0.1116950405
 H          1.5030583494        4.1100764569        1.5680471883
 H         -0.4966576521        6.0131972630        0.1453556705
 H         -0.8490741694        5.0029744968        1.6087960675
 H          0.0583661874        3.9152735925       -1.1541036762
 O          1.2666477204        1.1302385772        2.2808297156
