  62
        -98.94517974
 C          2.5212402777       -0.3139129374       -0.0492740590
 C          2.2017358433       -1.3217017148        0.8901702585
 C          1.5489713233       -2.5218360854        0.3543606429
 C          1.3062956709       -2.6024585032       -0.9667345523
 C          0.6503926187       -3.7690293001       -1.6477835482
 C         -0.8671716589       -3.5839019810       -1.7708128283
 C         -1.5582008987       -3.1931134821       -0.4642376345
 H         -1.2612908587       -2.1767803888       -0.1944054564
 H         -2.6320803303       -3.1612711261       -0.6654720553
 C         -1.2887136246       -4.1345061695        0.7173095444
 H         -2.2301522274       -4.3076846248        1.2428109427
 H         -0.9359056184       -5.1001408429        0.3518975259
 C         -0.3003555939       -3.5857393298        1.7485975731
 H         -0.3876808254       -4.1860849685        2.6586332518
 H         -0.5790161540       -2.5588425789        2.0033587935
 C          1.1761852221       -3.6013231343        1.3307711825
 H          1.7789701485       -3.4156236978        2.2248805799
 H          1.4378978602       -4.5866924257        0.9384117148
 H         -1.2960434935       -4.5147011122       -2.1482465793
 H         -1.0617906998       -2.7934761955       -2.4993772259
 H          0.8714419732       -4.6759554123       -1.0874816938
 H          1.0755071231       -3.8585683282       -2.6493575079
 O          1.6327821340       -1.6172411067       -1.8410762656
 C          2.1974571526       -0.4306559098       -1.4013181281
 O          2.3876629471        0.4126269073       -2.2989190985
 O          2.4586908633       -1.2220648080        2.1230187593
 C          3.1087225334        0.9939714158        0.4524845197
 C          2.0887313800        2.0900935155        0.2591323665
 C          2.3839137938        3.3608367644       -0.2136387777
 C          1.3763528567        4.2979802755       -0.3826672377
 C          0.0571883959        3.9843110358       -0.1123306717
 C         -0.2456699006        2.7154762455        0.3685312525
 C          0.7675798174        1.8003792737        0.5802876096
 H          0.5188658311        0.8259010260        0.9776988763
 N         -1.5975063573        2.3290149322        0.5772161675
 S         -1.9541962453        0.7009124552        0.3851861610
 O         -1.7092635328       -0.0499121622        1.6016192581
 O         -1.3040772276        0.2429339337       -0.8157633815
 C         -3.7126199203        0.8065898787        0.1097664681
 C         -4.1472473402        1.3804168464       -1.0698455256
 C         -5.5087356910        1.4960971455       -1.2980460417
 C         -6.4094278697        1.0378793472       -0.3474263266
 C         -5.9588546761        0.4611787390        0.8298533083
 C         -4.5972081505        0.3443369403        1.0641109167
 H         -4.1997440123       -0.1008623860        1.9621023090
 H         -6.6606650124        0.1030842948        1.5657873135
 H         -7.4689600136        1.1291287596       -0.5272053394
 H         -5.8622973815        1.9415939325       -2.2139351147
 H         -3.4085259416        1.7137002283       -1.7804781511
 H         -2.0277553364        2.7226204143        1.4015266252
 H         -0.7324598036        4.7001548469       -0.2732386523
 H          1.6235356459        5.2819617673       -0.7512008543
 H          3.4021378598        3.6167013829       -0.4583418716
 H          3.2534883281        0.8506800486        1.5347441614
 C          4.4482012896        1.2887595049       -0.1862654946
 C          5.4764886046        2.0886488761        0.5552569040
 C          5.6725660689        0.6167098451        0.3566918797
 H          6.4277056739        0.2829885722       -0.3387477251
 H          5.5421142278       -0.0376399270        1.2064220356
 H          6.1030265445        2.7668662518       -0.0038974625
 H          5.2216746519        2.4349869983        1.5454939825
 H          4.3775783522        1.4094453584       -1.2610654468
