  62
        -98.93379023
 C         -2.4152006642       -1.2513992322        0.1105241070
 C         -3.3740871254       -0.6834607784        0.9890243856
 C         -4.4383710888        0.1322008745        0.3829241675
 C         -4.4562979047        0.2992454183       -0.9501111009
 C         -5.4605128760        1.0425702399       -1.7952417645
 C         -5.9718687203        2.3901295816       -1.2697033582
 C         -4.9396910234        3.2124525696       -0.4844197825
 H         -3.9459553959        2.7766325650       -0.6023246142
 H         -4.9029442744        4.2226279430       -0.8964514915
 C         -5.2734687135        3.3241317530        1.0050976734
 H         -4.7443271825        4.1854574054        1.4196642493
 H         -6.3434373180        3.5159565097        1.1106634464
 C         -4.8964261599        2.1105240857        1.8538163518
 H         -3.8084301249        2.0395211211        1.9371143921
 H         -5.2844369618        2.2718795657        2.8623402614
 C         -5.4129998687        0.7569562853        1.3394018613
 H         -6.4026141112        0.8534823234        0.8995988253
 H         -5.4750909262        0.0754212408        2.1920399030
 H         -6.3071273610        2.9593293491       -2.1384629814
 H         -6.8484046070        2.2287095873       -0.6440077301
 H         -4.9670134498        1.1887153923       -2.7593294031
 H         -6.3131682550        0.3794509369       -1.9690172365
 O         -3.5116743078       -0.2566045752       -1.7592400719
 C         -2.4724380272       -1.0338835750       -1.2652447424
 O         -1.6990260123       -1.4454489471       -2.1519446665
 O         -3.3514641847       -0.8693841798        2.2344034292
 C         -1.3425628809       -2.1177992646        0.7462690140
 C         -0.0757559386       -1.3458120525        1.0101469214
 C          0.5401537635       -1.3847266145        2.2553563600
 C          1.7239544101       -0.7026635542        2.4778430214
 C          2.3182598084        0.0269052970        1.4637990564
 C          1.7089365051        0.0744080270        0.2167990682
 C          0.5197651427       -0.6041264842       -0.0011592703
 H          0.0578878783       -0.5739420706       -0.9777462842
 N          2.3207678406        0.8055944944       -0.8262306749
 S          3.7918802326        0.1702299056       -1.3522448481
 O          3.9742131607        0.6724562785       -2.6962662672
 O          3.8268958974       -1.2657351463       -1.1909941682
 C          4.9885126822        0.9322948349       -0.2770708334
 C          5.7802077314        0.1469618887        0.5376877851
 C          6.7072184167        0.7625065555        1.3645343595
 C          6.8252971693        2.1440096292        1.3611101877
 C          6.0236926913        2.9181612443        0.5349647041
 C          5.0957536443        2.3093857042       -0.2948306364
 H          4.4563987191        2.8712743405       -0.9551825929
 H          6.1187320829        3.9920667581        0.5351596300
 H          7.5465560510        2.6205786586        2.0060894991
 H          7.3312490308        0.1627110050        2.0073173753
 H          5.6478149070       -0.9226502434        0.5095485509
 H          1.7118122930        0.9136657679       -1.6265382234
 H          3.2403732030        0.5595464570        1.6296357617
 H          2.1898915142       -0.7404877567        3.4504305811
 H          0.0797525339       -1.9491292624        3.0530490524
 H         -1.7636669704       -2.4034476096        1.7232816006
 C         -1.0868656661       -3.4048969857       -0.0286268814
 C          0.1771867524       -3.6988389540       -0.7747866715
 C         -0.1223537283       -4.4247019984        0.5006107647
 H         -0.3929943811       -5.4685179362        0.4538094985
 H          0.4571065879       -4.1546682556        1.3705260582
 H          0.0899269797       -4.2297301689       -1.7109665002
 H          0.9691126806       -2.9649972511       -0.7742421258
 H         -1.9985301348       -3.7887347826       -0.4764810192
