  62
        -98.93658223
 C         -2.5720278230       -0.6824664591        0.0502513285
 C         -2.9305992128        0.3711706653        0.9186649051
 C         -2.9819937140        1.7278657701        0.3403240474
 C         -2.6694889944        1.8874221062       -0.9595677470
 C         -2.5836176504        3.1680496638       -1.7464091466
 C         -1.3052967552        3.9610241834       -1.4321112368
 C         -0.9767913547        4.0876593683        0.0530155628
 H         -0.8497338650        3.0878751046        0.4732460341
 H         -0.0098908873        4.5915117509        0.1335610457
 C         -1.9884178697        4.8738291271        0.8842026987
 H         -2.0846637045        5.8797707628        0.4700836885
 H         -1.5746929857        4.9673530358        1.8914948570
 C         -3.3854052566        4.2594452746        1.0013418254
 H         -3.9719823897        4.4415757914        0.1050197070
 H         -3.8990245722        4.7743117152        1.8184027798
 C         -3.4018224259        2.7737003307        1.3458464803
 H         -2.7828285354        2.6042996326        2.2343439485
 H         -4.4192888769        2.4973145258        1.6478926918
 H         -1.3978974382        4.9543214524       -1.8749786751
 H         -0.4648430158        3.4507923865       -1.9107057455
 H         -3.4681894907        3.7750477306       -1.5786311550
 H         -2.5656513014        2.8862473410       -2.8015778553
 O         -2.3245877064        0.8384552453       -1.7612122028
 C         -2.2502880824       -0.4569283725       -1.2878847778
 O         -1.9027058840       -1.3007159466       -2.1367038393
 O         -3.1824387615        0.1946347182        2.1430061520
 C         -2.4446562580       -2.0910488621        0.6029319987
 C         -1.0210878593       -2.5573104318        0.4184519829
 C         -0.6714099093       -3.7894807744       -0.1170286134
 C          0.6590141672       -4.1148594889       -0.3232130608
 C          1.6667951178       -3.2245904681       -0.0010561114
 C          1.3273527076       -2.0007962417        0.5572482496
 C         -0.0015978836       -1.6821452783        0.7733967909
 H         -0.2568137479       -0.7164301348        1.1949779055
 N          2.3559546861       -1.0678196184        0.8615411514
 S          2.8455367371       -0.1791761920       -0.4973693132
 O          1.9799544915        0.9704528558       -0.6662568071
 O          2.9628303882       -1.0768617825       -1.6170777910
 C          4.4661111014        0.3568400524        0.0177195626
 C          4.6601357639        1.6549031643        0.4468519198
 C          5.9223218058        2.0380582876        0.8737855616
 C          6.9610382615        1.1199138601        0.8683008393
 C          6.7498529565       -0.1809993595        0.4354971408
 C          5.4911238549       -0.5692419815        0.0063892310
 H          5.2809212880       -1.5653081998       -0.3459455865
 H          7.5602407955       -0.8919155915        0.4315354099
 H          7.9416904348        1.4204825982        1.2018748614
 H          6.0891209130        3.0491868776        1.2087504121
 H          3.8244596397        2.3360620854        0.4279882547
 H          2.0380542159       -0.3916198649        1.5454814927
 H          2.7025756441       -3.4528430060       -0.1898491211
 H          0.9118117609       -5.0715100949       -0.7545675945
 H         -1.4427627240       -4.4896400049       -0.3935179561
 H         -2.6484436922       -2.0050999367        1.6807909530
 C         -3.4727590787       -3.0108796085       -0.0191134304
 C         -3.9773932491       -4.2013774858        0.7389429551
 C         -4.8672248079       -3.0143742619        0.5293126724
 H         -5.6917843184       -3.1003069289       -0.1621747778
 H         -5.0692341934       -2.3686411861        1.3714007107
 H         -4.1950884153       -5.1060463725        0.1917565686
 H         -3.5805381544       -4.3676709606        1.7288715188
 H         -3.3564233346       -3.0950423976       -1.0939080919
