  62
        -98.93842473
 C         -2.2584787400       -1.2375863413       -0.0366555809
 C         -2.8828909104       -0.4357394521        0.9519736195
 C         -3.4965839005        0.8324085781        0.5178913402
 C         -3.4408388803        1.1595883590       -0.7861548896
 C         -3.9436171804        2.4080128493       -1.4609541489
 C         -3.0270250107        3.6167832793       -1.2162089679
 C         -2.5700838711        3.7921748585        0.2295502823
 H         -2.0244514909        2.8991480084        0.5413212018
 H         -1.8601689012        4.6234473286        0.2521616930
 C         -3.6803460213        4.0951968176        1.2335131023
 H         -3.1989773416        4.2983282571        2.1933941225
 H         -4.2019742014        5.0037294677        0.9247484327
 C         -4.7150368012        2.9877002673        1.4480736013
 H         -5.4431037310        2.9669076376        0.6416561712
 H         -5.2681097314        3.2330642066        2.3592756614
 C         -4.1248199409        1.5970750072        1.6580606305
 H         -4.9084817309        0.9406640968        2.0549134399
 H         -3.3637495711        1.6445343469        2.4451560707
 H         -3.5465643708        4.5168911795       -1.5497771174
 H         -2.1320722606        3.4934539699       -1.8321879178
 H         -3.9633835302        2.1987834700       -2.5329016790
 H         -4.9601080705        2.6231529989       -1.1454329790
 O         -2.8424308300        0.3530916297       -1.7067165900
 C         -2.2221722898       -0.8351282304       -1.3706410607
 O         -1.7035969395       -1.4153207497       -2.3485462109
 O         -2.9267692006       -0.7665595129        2.1676437492
 C         -1.5843669799       -2.5109656415        0.4504513884
 C         -0.1155454900       -2.2388961213        0.6707211288
 C          0.4459720898       -2.2910275920        1.9409800589
 C          1.7778973397       -1.9695404419        2.1382271694
 C          2.5707586198       -1.5708935511        1.0762905598
 C          2.0154644401       -1.5117542503       -0.1945517302
 C          0.6912067302       -1.8632011905       -0.3944664507
 H          0.2678250504       -1.7992767099       -1.3863315508
 N          2.8036933202       -1.0304605395       -1.2733801498
 S          2.8804191199        0.6575677606       -1.2790600286
 O          1.6440781697        1.2449445600       -0.8090053485
 O          3.3009446301        1.0284837915       -2.6128350783
 C          4.1911173896        1.0001574801       -0.1253463282
 C          3.8906305292        1.5409064992        1.1092235421
 C          4.9221441790        1.7798396188        2.0039596425
 C          6.2276133291        1.4746530593        1.6498033626
 C          6.5127092995        0.9341441302        0.4044863423
 C          5.4862187797        0.6924286806       -0.4945074281
 H          5.6599866000        0.2796275612       -1.4741844583
 H          7.5292685796        0.6999600006        0.1326147223
 H          7.0275835689        1.6605855790        2.3489079929
 H          4.7018447787        2.2000209181        2.9720911727
 H          2.8598148591        1.7576460988        1.3403957721
 H          2.4318992204       -1.3208509090       -2.1689626100
 H          3.6050461597       -1.3047445409        1.2216959602
 H          2.1994464595       -2.0169450125        3.1304651195
 H         -0.1776389303       -2.5634448827        2.7798687586
 H         -2.0374223200       -2.7219721422        1.4284206681
 C         -1.8022653894       -3.7096266509       -0.4497823925
 C         -1.6201666693       -5.0841597513        0.1184996667
 C         -2.9931285093       -4.5896176013       -0.2222487033
 H         -3.4961578290       -5.0051088708       -1.0823898937
 H         -3.6581580995       -4.3298659720        0.5884208068
 H         -1.1774786390       -5.8440584908       -0.5067414437
 H         -1.3549849295       -5.1620572519        1.1618647567
 H         -1.4990637293       -3.5422362402       -1.4749554823
