  62
        -98.93971398
 C         -2.4915115968       -0.9726806962       -0.0723535146
 C         -3.6906985011       -1.0760226499        0.6717910321
 C         -4.8963687104       -0.5421852775        0.0249238947
 C         -4.7992301743       -0.0061901186       -1.2057250289
 C         -5.9357945916        0.6222363407       -1.9579872591
 C         -6.0254061105        2.1282431638       -1.6745679963
 C         -5.9868837875        2.4806195789       -0.1875499737
 H         -5.0051856854        2.2200257175        0.2150105275
 H         -6.0876887163        3.5652329936       -0.1075928759
 C         -7.0766769860        1.8022808153        0.6543426916
 H         -7.8757073947        1.4421991524        0.0053280445
 H         -7.5136831452        2.5449989760        1.3251414635
 C         -6.5776457837        0.6511113915        1.5296278304
 H         -5.7164308534        0.9830069201        2.1152617150
 H         -7.3714887645        0.3917320970        2.2351915184
 C         -6.1891911081       -0.6331085622        0.7860712843
 H         -6.0414696246       -1.4176223432        1.5340763190
 H         -7.0043834719       -0.9368694173        0.1263160093
 H         -6.9482873835        2.5083844183       -2.1163911136
 H         -5.1841066322        2.6235257075       -2.1649041866
 H         -5.7655025180        0.4725060184       -3.0254010194
 H         -6.8660057851        0.1328191038       -1.6760050855
 O         -3.6314395929        0.0653698420       -1.8940160706
 C         -2.4472130703       -0.4055598135       -1.3458984693
 O         -1.4511759274       -0.2696824962       -2.0807922645
 H          1.4170054368       -1.3671116395       -0.3325329404
 C          1.0934430905       -0.4642348873        0.1611935257
 C         -0.1989755641       -0.3698380307        0.6503307139
 C         -0.5817508008        0.8061005535        1.2911183180
 C          0.2983807538        1.8629243207        1.4163421020
 C          1.5819973758        1.7729018620        0.9064587620
 C          1.9790968029        0.6018472041        0.2773881253
 N          3.2754200836        0.5036820831       -0.2565679338
 S          4.5514126613        1.1449093566        0.6434319733
 O          4.4394835099        0.7344148965        2.0254317273
 O          4.6080920588        2.5669173312        0.4133263424
 C          5.9445978321        0.3513340877       -0.1337764102
 C          6.4881416517       -0.7813990258        0.4418521719
 C          7.5556716859       -1.4049403993       -0.1848938325
 C          8.0565216236       -0.8895589365       -1.3708963122
 C          7.5001793188        0.2483560765       -1.9363797995
 C          6.4332729615        0.8772832036       -1.3147801328
 H          5.9746514366        1.7675444132       -1.7124535658
 H          7.8941353449        0.6468881029       -2.8573487877
 H          8.8875448137       -1.3764297319       -1.8563622677
 H          7.9921864247       -2.2880189612        0.2532474487
 H          6.0723032465       -1.1415784243        1.3691852412
 H          3.4854870792       -0.4279928684       -0.5873946993
 H          2.2790694350        2.5906065657        0.9948528613
 H         -0.0154324181        2.7688436867        1.9137040666
 H         -1.5848857833        0.8801910357        1.6894219598
 C         -1.2022457257       -1.4914999435        0.5381389082
 H         -1.4698475219       -1.8106786643        1.5565300730
 C         -0.6995592618       -2.6945165629       -0.2313666534
 C          0.1537997012       -3.7220303349        0.4491391291
 C         -1.2642955418       -4.0448593516        0.0883983236
 H         -1.4478671970       -4.7321340818       -0.7237483936
 H         -1.9961929917       -4.1006811427        0.8808180837
 H          0.9436710920       -4.1940328541       -0.1156852934
 H          0.3888277078       -3.5647686376        1.4910663917
 H         -0.5023500327       -2.4692500168       -1.2735885543
 O         -3.7488894214       -1.5881701379        1.8225541462
