  62
        -98.94046664
 C          1.7889196752        1.3535441826        0.3380513544
 C          1.3186115207        0.2541203525       -0.4154465359
 C          1.8709805359       -1.0716019465       -0.0774711264
 C          2.7765052191       -1.1658340242        0.9123884506
 C          3.5083962608       -2.3979616980        1.3687015816
 C          4.6389154809       -2.8073550153        0.4042486132
 C          4.3295567481       -2.6263896617       -1.0810295837
 H          4.0108816420       -1.5972763098       -1.2571137071
 H          5.2602129776       -2.7759696298       -1.6347066420
 C          3.2882892685       -3.5854052139       -1.6533569618
 H          3.1524600135       -3.3331638299       -2.7078989267
 H          3.6783165245       -4.6047368725       -1.6018733135
 C          1.9207782206       -3.5667286624       -0.9713108337
 H          1.2483564507       -4.1914284757       -1.5670699231
 H          1.9791675706       -4.0271968282        0.0114309861
 C          1.2579640790       -2.1944897276       -0.8777128114
 H          1.1188407018       -1.7966746872       -1.8890772693
 H          0.2484778315       -2.3267152208       -0.4650095021
 H          4.9016248902       -3.8480682497        0.5996012492
 H          5.5109961286       -2.1907143696        0.6342978158
 H          3.9468855031       -2.1647860837        2.3415847262
 H          2.7980125399       -3.2072463819        1.5146844216
 O          3.1997010670       -0.0803400853        1.6207711155
 C          2.6919066079        1.1826260265        1.3878229007
 O          3.1170023854        2.0615495767        2.1664321874
 H         -0.4599913124        1.4425455658        1.7000626691
 C         -0.9804852325        1.9384464320        0.8925165020
 C         -0.2634839748        2.6800316479       -0.0396843521
 C         -0.9620458873        3.3049715551       -1.0645301923
 C         -2.3368740726        3.1714387236       -1.1611828332
 C         -3.0383187632        2.3914684950       -0.2608180940
 C         -2.3472929071        1.7619520225        0.7681500159
 N         -3.0023974550        0.9190583762        1.6933382863
 S         -2.6185367390       -0.7122249971        1.6085071047
 O         -3.4201208518       -1.3418926971        2.6372643749
 O         -1.1934484230       -0.8905184245        1.7136629673
 C         -3.2177521501       -1.2250460320        0.0071937509
 C         -2.4896814190       -0.9129248841       -1.1235381768
 C         -3.0086401690       -1.2601649154       -2.3624405041
 C         -4.2338318176       -1.9021654735       -2.4502841746
 C         -4.9520357461       -2.2063539814       -1.3033104371
 C         -4.4433436097       -1.8605923374       -0.0623227945
 H         -4.9627487445       -2.0780068214        0.8571371806
 H         -5.9041454685       -2.7075086271       -1.3721086305
 H         -4.6300480870       -2.1674443342       -3.4178498576
 H         -2.4452891502       -1.0198834543       -3.2497554057
 H         -1.5346546053       -0.4168262050       -1.0360542775
 H         -4.0094366669        1.0138876926        1.6832276256
 H         -4.1062321815        2.2615674089       -0.3539116018
 H         -2.8651402615        3.6632631353       -1.9635904425
 H         -0.4296992249        3.8805552100       -1.8036355035
 C          1.2350320087        2.7534610891        0.1311285308
 H          1.4390490675        3.2805439489        1.0787734945
 C          1.9324727144        3.5443304324       -0.9666046401
 C          3.3284598260        3.2071668097       -1.3961621378
 C          2.1792946322        2.9617097789       -2.3245766359
 H          2.0730539675        3.6037061727       -3.1867004963
 H          1.8601474608        1.9452953978       -2.4909027132
 H          4.0056994422        4.0195479931       -1.6137531635
 H          3.8051686951        2.3568137856       -0.9298975183
 H          1.6918211923        4.6019578281       -0.9227265042
 O          0.4770716685        0.3610033419       -1.3463618679
