  62
        -98.93812059
 C         -2.2365727708       -0.9339169886        0.3291229775
 C         -2.4264913838       -0.0465154148       -0.7554768787
 C         -3.2838105502        1.1251832801       -0.4960805969
 C         -3.7989342212        1.3003812588        0.7332039862
 C         -4.7341868775        2.3866075939        1.1878092105
 C         -6.1973455305        1.9267798367        1.0696485154
 C         -6.8420614175        2.1735595533       -0.2937470360
 H         -7.8209899399        1.6888577046       -0.2820248825
 H         -7.0089089425        3.2450647603       -0.4224326679
 C         -6.0505032914        1.6537964828       -1.4967182033
 H         -6.7447328487        1.5468106367       -2.3324147262
 H         -5.6553009750        0.6605454445       -1.2760956462
 C         -4.9075833326        2.5896278630       -1.9176390159
 H         -4.9800141100        2.7890351999       -2.9887250749
 H         -5.0306109139        3.5493268030       -1.4159452703
 C         -3.4915858638        2.0514032314       -1.6632039046
 H         -3.1581012399        1.4764371831       -2.5328137867
 H         -2.8006485947        2.8954369518       -1.5654708197
 H         -6.7903333591        2.4486007367        1.8235184937
 H         -6.2332725004        0.8603676941        1.3070717171
 H         -4.5110037866        2.5695031497        2.2411272189
 H         -4.5630307026        3.3019787059        0.6292128467
 O         -3.5601637261        0.4370737526        1.7602756221
 C         -2.7828134390       -0.6934943886        1.5882544922
 O         -2.6454625629       -1.3886141233        2.6167371238
 H          0.1052617523       -0.2270167986        1.1752685206
 C          0.6442278710       -0.7548266155        0.3967092366
 C          0.0170687152       -1.8031642609       -0.2654834807
 C          0.7275757733       -2.4827977738       -1.2460296581
 C          2.0204260280       -2.1039875450       -1.5647327419
 C          2.6320945193       -1.0470227934       -0.9169669659
 C          1.9360924024       -0.3687245333        0.0752980388
 N          2.5463564550        0.7136015373        0.7352164419
 S          4.0600991376        0.4623625022        1.4195380048
 O          4.2405527798       -0.9163152521        1.8120158968
 O          4.1678651085        1.4494612446        2.4719493623
 C          5.1949854955        0.8803676800        0.1132120613
 C          5.0854976814        2.1283671246       -0.4682798916
 C          5.9664701051        2.4740009957       -1.4804471017
 C          6.9382373054        1.5724770990       -1.8890810772
 C          7.0369866278        0.3246968035       -1.2928187204
 C          6.1579320254       -0.0280311565       -0.2804879801
 H          6.1923444867       -0.9887032677        0.2080687872
 H          7.7930398723       -0.3744228274       -1.6121535518
 H          7.6223999343        1.8444010553       -2.6772991419
 H          5.8922153461        3.4432025720       -1.9468233019
 H          4.3181116815        2.7994678953       -0.1198658931
 H          1.9379209321        1.1798001596        1.3926042651
 H          3.6354675685       -0.7442690800       -1.1680349451
 H          2.5578082454       -2.6376749922       -2.3335999521
 H          0.2678466384       -3.3081961898       -1.7641109173
 C         -1.3863590420       -2.1774558487        0.1484384248
 H         -1.3281004285       -2.6519349329        1.1398837069
 C         -2.0637049372       -3.1351300088       -0.8103978274
 C         -1.8821139047       -4.6145966833       -0.6589785303
 C         -3.1928571458       -3.9804169959       -0.3053921366
 H         -4.0411840711       -4.1491990891       -0.9515416916
 H         -3.4525002260       -3.8860436110        0.7394749408
 H         -1.8338711755       -5.2225005321       -1.5498191881
 H         -1.2546949310       -4.9620978548        0.1480281961
 H         -2.1522455338       -2.7268606655       -1.8104550612
 O         -1.9112335196       -0.2230034880       -1.8897408198
