  62
        -98.93426802
 C          2.0859499028        1.2766391459       -0.0779011794
 C          2.4060183372        0.0142310684       -0.6306531837
 C          3.8112675663       -0.4337936675       -0.5006177151
 C          4.6975584262        0.3624098981        0.1233047971
 C          6.1555309220        0.1064999696        0.3981692394
 C          6.3747695529       -0.8780223214        1.5580776773
 C          5.4691126583       -2.1066278761        1.5376886973
 H          4.4260406007       -1.7847530358        1.5500549427
 H          5.6460666961       -2.6649246625        2.4608336396
 C          5.6918777012       -3.0600337702        0.3661027143
 H          5.0466395930       -3.9275734383        0.5271489899
 H          6.7267545556       -3.4094386852        0.3802299784
 C          5.3886524237       -2.4957901374       -1.0235349177
 H          5.3524360598       -3.3416525287       -1.7164890287
 H          6.1913922431       -1.8497207526       -1.3688495112
 C          4.0467261864       -1.7800031937       -1.1425488208
 H          3.2548097787       -2.4366888163       -0.7638196652
 H          3.8197736051       -1.6433135116       -2.2071078391
 H          6.1896240188       -0.3442400970        2.4934467246
 H          7.4196495908       -1.1927842974        1.5506603817
 H          6.5961353887        1.0680415403        0.6711144386
 H          6.6511305089       -0.2401591357       -0.5037227033
 O          4.3392086605        1.5658187748        0.6560072019
 C          3.0466365417        2.0432694817        0.5870628577
 O          2.8760578899        3.1447852246        1.1470774252
 O          1.5763042223       -0.7292093147       -1.2155529206
 C          0.6788129869        1.8512271044       -0.1135948798
 C         -0.3141414235        0.8040248862        0.3239101168
 C         -0.3768984364        0.4570103824        1.6701187108
 C         -1.2536931760       -0.5170473711        2.1096825771
 C         -2.0854366302       -1.1667229489        1.2151163799
 C         -2.0297818132       -0.8275747669       -0.1302579861
 C         -1.1592310342        0.1625129838       -0.5673709339
 H         -1.1085682785        0.3999888936       -1.6183277171
 N         -2.8672475159       -1.4875478164       -1.0435318895
 S         -4.4703544480       -1.7172736616       -0.6374680744
 O         -4.5951963964       -2.8396979824        0.2589437974
 O         -5.1686654444       -1.8355189143       -1.8982328987
 C         -4.9474397704       -0.2169064663        0.2025535085
 C         -4.9069520587        0.9650105004       -0.5107284641
 C         -5.2329430933        2.1477541745        0.1320484441
 C         -5.5897352548        2.1292240527        1.4719782752
 C         -5.6296594443        0.9344324818        2.1731120872
 C         -5.3038706188       -0.2519099600        1.5349120248
 H         -5.3219582140       -1.2023515689        2.0428439974
 H         -5.9095616636        0.9230950464        3.2142221312
 H         -5.8390400777        3.0522655074        1.9712439607
 H         -5.2050063707        3.0786507620       -0.4113726492
 H         -4.6328328416        0.9426130894       -1.5532562720
 H         -2.7549960520       -1.1884579207       -2.0002623790
 H         -2.7603049492       -1.9438769998        1.5353066205
 H         -1.2869255130       -0.7782495669        3.1565652693
 H          0.2821855577        0.9553952696        2.3681291337
 H          0.6848034412        2.6479890695        0.6475116886
 C          0.3029608506        2.5172399908       -1.4290687004
 C          1.3224138397        3.2913749137       -2.2088600937
 C          0.7662218183        2.0154473148       -2.7623118736
 H          0.0824483867        2.0771778942       -3.5969092410
 H          1.3978906111        1.1416876965       -2.7816706081
 H          1.0249105909        4.2247231756       -2.6625607340
 H          2.3374966662        3.2898264681       -1.8387792957
 H         -0.6961238272        2.9411304655       -1.3903064357
