  62
        -98.94289525
 C          2.4462237765        0.1212836290        0.0461944018
 C          1.5934223935       -0.3476306157       -0.9811920268
 C          1.3358107432       -1.7928993409       -1.0020531363
 C          1.8732992649       -2.5679260930       -0.0434154812
 C          1.5831898745       -4.0280877639        0.1544148740
 C          0.2086099700       -4.1857662128        0.8377973253
 C         -0.8482747518       -4.8814928659       -0.0203837535
 H         -0.6352094800       -5.9527368895       -0.0500818569
 H         -1.8086506029       -4.7468015025        0.4825850214
 C         -0.9676767294       -4.3827349842       -1.4638374791
 H         -1.9186753632       -4.7546232167       -1.8510317340
 H         -0.1833967396       -4.8355013444       -2.0730508953
 C         -0.9206582585       -2.8606784769       -1.6514971516
 H         -1.6433139372       -2.5888596462       -2.4241494755
 H         -1.2242698422       -2.3495137862       -0.7367794775
 C          0.4507663735       -2.3176782151       -2.0979173644
 H          0.9847331546       -3.0854333390       -2.6648747871
 H          0.2888827298       -1.4650021310       -2.7636955272
 H         -0.1522513580       -3.1933472529        1.1200571815
 H          0.3243808775       -4.7516114220        1.7642337373
 H          1.5971922430       -4.5427648992       -0.8038477086
 H          2.3716991272       -4.4388390391        0.7857808638
 O          2.6849026246       -2.0820551525        0.9323739967
 C          2.9674064570       -0.7288358972        1.0181178579
 O          3.6828386876       -0.4105376257        1.9926228334
 H          0.8170246343        0.8926212157        1.9161247543
 C          0.4724188852        1.7144827718        1.2993867826
 C          1.3363093898        2.2711278989        0.3630234276
 C          0.8779210969        3.3305439447       -0.4080419252
 C         -0.4258866364        3.7806963897       -0.2805647442
 C         -1.3032898039        3.1705512832        0.5978322376
 C         -0.8416337453        2.1334497693        1.3966385539
 N         -1.7694002471        1.4392199995        2.2322719438
 S         -2.2258024022       -0.0118945182        1.4902974926
 O         -3.2002790469       -0.6154917721        2.3755703335
 O         -1.0767964034       -0.8411388307        1.1927884331
 C         -3.0118670421        0.5627761751        0.0054919799
 C         -2.2701358236        0.7218375525       -1.1480143688
 C         -2.8979009149        1.2297589559       -2.2752381509
 C         -4.2412398418        1.5685456232       -2.2296262078
 C         -4.9707529241        1.4013290776       -1.0616685132
 C         -4.3510569682        0.8967823050        0.0696390179
 H         -4.8729996300        0.7472494274        1.0005218998
 H         -6.0154779567        1.6655176954       -1.0288632981
 H         -4.7213896525        1.9659237775       -3.1100390801
 H         -2.3236304947        1.3616528178       -3.1781444318
 H         -1.2234423801        0.4589878222       -1.1588102984
 H         -1.3781662614        1.2087569338        3.1369090369
 H         -2.3336722687        3.4779651590        0.6711245666
 H         -0.7705947733        4.5967714182       -0.8963074620
 H          1.5357947456        3.7876177638       -1.1289039744
 C          2.6861885427        1.6158668009        0.1971589967
 H          3.2605877510        1.7437740000        1.1260123078
 C          3.4916425994        2.1579538788       -0.9632543748
 C          4.3242798616        3.3916553123       -0.7888653900
 C          4.9853965955        2.0533684054       -0.9204176144
 H          5.5121407956        1.8233235214       -1.8342029297
 H          5.4257734559        1.6076833161       -0.0400329410
 H          4.3239470701        3.8621047366        0.1827543866
 H          4.4023330908        4.0824592667       -1.6145547371
 H          3.0059949365        1.9953022525       -1.9181206399
 O          1.0623826973        0.4088751130       -1.8364901800
