  62
        -98.93919279
 C          0.4801117568        1.5385115607        0.6038983719
 C          1.2020943646        1.1546503592       -0.5484623555
 C          2.4135113023        0.3411026807       -0.3244472862
 C          2.6937926161       -0.0851150483        0.9194880270
 C          3.8870735791       -0.8613627252        1.4229825021
 C          4.4705803313       -1.9649025380        0.5288480778
 C          5.7922056883       -1.5837618403       -0.1425593915
 H          6.3821247220       -0.9879139529        0.5570373953
 H          6.3556354155       -2.4971820505       -0.3458932979
 C          5.6552932204       -0.8235777301       -1.4601351217
 H          6.6564709485       -0.5137939158       -1.7688121462
 H          5.2714876290       -1.4961408552       -2.2298842333
 C          4.7560323157        0.4117720266       -1.4011890108
 H          5.0379546658        1.0741194806       -2.2222293855
 H          4.9301440340        0.9609294969       -0.4756475078
 C          3.2590522310        0.0905580388       -1.5420507435
 H          2.8174344656        0.7194128601       -2.3207012738
 H          3.1249042156       -0.9408825110       -1.8730642260
 H          4.6585015203       -2.8330861550        1.1631667569
 H          3.7419971157       -2.2611148490       -0.2214664418
 H          4.6702111962       -0.1388385452        1.6717291571
 H          3.5597344564       -1.2906078255        2.3735723167
 O          1.8822728700        0.1959315238        1.9824461789
 C          0.7969808374        1.0439072715        1.8673003147
 O          0.2028587494        1.2719557522        2.9414930417
 H         -2.0360862465        0.3056575974        0.9422257809
 C         -2.3625219585        0.7775833031        0.0261320571
 C         -1.7647211573        1.9659392966       -0.3775489159
 C         -2.2122245869        2.5767868398       -1.5411994103
 C         -3.2265004041        2.0007849656       -2.2862008802
 C         -3.8159244404        0.8163511506       -1.8861162749
 C         -3.3833876336        0.2037980885       -0.7142569757
 N         -3.9877468398       -0.9785018791       -0.2679605898
 S         -3.1814707288       -2.0640024018        0.6971415187
 O         -3.9366181007       -3.2913268577        0.5499056225
 O         -3.0696396442       -1.5611662259        2.0433351293
 C         -1.5652079375       -2.3004395032       -0.0185371417
 C         -1.4558172815       -2.4904351437       -1.3815993286
 C         -0.2131141185       -2.7788637727       -1.9205767353
 C          0.8895557161       -2.8908737361       -1.0891230385
 C          0.7661922531       -2.6917107946        0.2764650256
 C         -0.4717913582       -2.3862177041        0.8177758649
 H         -0.6071417829       -2.2105795445        1.8740913689
 H          1.6229696239       -2.7758849807        0.9250089922
 H          1.8502777364       -3.1443036093       -1.5093021684
 H         -0.1096953028       -2.9232952572       -2.9838596076
 H         -2.3328958292       -2.4185910309       -2.0035620903
 H         -4.6299460676       -1.4176477405       -0.9097490243
 H         -4.6090787385        0.3699487769       -2.4657864705
 H         -3.5615677401        2.4812887614       -3.1926604947
 H         -1.7636178516        3.4989471613       -1.8700618086
 C         -0.6691622120        2.5252545957        0.4950136853
 H         -1.0739326571        2.6269241217        1.5126899616
 C         -0.1503880304        3.8736605320        0.0392556888
 C         -0.9133638956        5.1200574962        0.3689276340
 C          0.3828223300        4.8289351012        1.0624114923
 H          1.2484430170        5.4235893759        0.8116825189
 H          0.3537867535        4.5164923839        2.0965270644
 H         -1.8260304352        5.0108145809        0.9351077620
 H         -0.9369009812        5.9193151728       -0.3561306058
 H          0.3666977840        3.8249988833       -0.9117973361
 O          0.8784826173        1.5022540649       -1.7133332723
