  62
        -98.93655683
 C          2.5474496714        0.0409344664        0.1348598302
 C          2.3916330328       -1.1071388830        0.9466115864
 C          1.8303305043       -2.3163216415        0.3162082058
 C          1.5110372274       -2.2719237681       -0.9901495771
 C          0.8595192175       -3.3345639549       -1.8348192953
 C         -0.6491630774       -3.4289080335       -1.5680505486
 C         -1.0322604693       -3.5054683935       -0.0925542223
 H         -2.1244373571       -3.5379697948       -0.0379359122
 H         -0.7253035882       -2.5819137189        0.4040722371
 C         -0.4896238752       -4.7149927959        0.6672034208
 H         -0.8124256624       -5.6275030434        0.1610595150
 H         -0.9530981660       -4.7008308065        1.6568533906
 C          1.0288963064       -4.7739394872        0.8612590109
 H          1.5295622904       -5.1551842306       -0.0250252743
 H          1.2252193433       -5.4930599797        1.6617928115
 C          1.6662320544       -3.4571095027        1.2913512224
 H          2.6725243133       -3.6619751261        1.6768065970
 H          1.1092659065       -3.0483370777        2.1428924275
 H         -1.0398644028       -4.3003982015       -2.0973397372
 H         -1.1201591332       -2.5320677745       -1.9796211471
 H          1.3407668170       -4.2959589989       -1.6839339203
 H          1.0097508083       -3.0410066862       -2.8762802119
 O          1.7154978967       -1.1570641649       -1.7461030985
 C          2.1618840265        0.0340078548       -1.2070962476
 O          2.1906307960        0.9772071682       -2.0206939758
 O          2.6878860219       -1.1203708260        2.1742635604
 C          2.9207742722        1.3455036853        0.8211405435
 C          1.8375621577        2.3473301764        0.5047322093
 C          2.0532380761        3.6092885912       -0.0295215982
 C          0.9771149109        4.4173134868       -0.3586912446
 C         -0.3231251252        3.9791068583       -0.1890947368
 C         -0.5477211943        2.7199402817        0.3577717240
 C          0.5290792011        1.9366240300        0.7292151950
 H          0.3453802990        0.9599533263        1.1543141175
 N         -1.8497430790        2.2186676183        0.5488740565
 S         -2.0705141682        0.5599863929        0.2828625859
 O         -1.6987905561       -0.1531678557        1.4800452754
 O         -1.4216201000        0.1535077187       -0.9418384685
 C         -3.8430839168        0.5066775625        0.0915119097
 C         -4.3888040179        0.4930857060       -1.1779390187
 C         -5.7682455575        0.4873756926       -1.3150688512
 C         -6.5737547552        0.4993888628       -0.1863021115
 C         -6.0114245470        0.5121098063        1.0816384405
 C         -4.6331155167        0.5159915619        1.2254897173
 H         -4.1492966480        0.5161788045        2.1882292389
 H         -6.6406179069        0.5185492596        1.9569288348
 H         -7.6466873879        0.4959722265       -0.2956334542
 H         -6.2073978797        0.4736929292       -2.2995482963
 H         -3.7216748882        0.4773272134       -2.0252006909
 H         -2.5481063189        2.7593014154        0.0558663304
 H         -1.1570260176        4.5984779904       -0.4829658519
 H          1.1556897771        5.3944578971       -0.7815644352
 H          3.0587025697        3.9482310405       -0.2184458167
 H          2.8567669824        1.1074643740        1.8972949996
 C          4.3326823520        1.8502909286        0.5779066588
 C          5.4289892042        0.9063763357        0.1856418024
 C          4.9426000251        1.9356202079       -0.7877942581
 H          5.5869125927        2.7751278541       -1.0052963116
 H          4.3409971746        1.6143443132       -1.6226190022
 H          6.4033805337        1.0348003061        0.6327026784
 H          5.1570465237       -0.1253127023        0.0137144262
 H          4.6052276440        2.6334768003        1.2792036269
