  62
        -98.94058837
 C         -1.6788467681       -0.4877599102       -1.2283642709
 C         -1.7089375082        0.3486019802       -0.0840945933
 C         -3.0281264880        0.9016453756        0.2676293922
 C         -4.0991537547        0.6013930016       -0.4874108230
 C         -5.5027147899        1.0537097329       -0.2088290927
 C         -6.2518218665        0.0329177951        0.6592362719
 C         -5.4735597725       -0.4145761646        1.8966912368
 H         -6.1105332221       -1.1106076586        2.4469953674
 H         -4.5887855729       -0.9717828907        1.5797779772
 C         -5.0447764963        0.7302421839        2.8251659843
 H         -5.2558827523        0.4410872730        3.8569030262
 H         -5.6365003963        1.6212019355        2.6115810635
 C         -3.5571494504        1.0805807477        2.7556899494
 H         -3.3247198708        1.7391904925        3.5967461902
 H         -2.9604977103        0.1726926233        2.8761483266
 C         -3.0981008399        1.7917250589        1.4765174623
 H         -3.7388084034        2.6546823220        1.2844432604
 H         -2.0779467940        2.1485719472        1.6440967523
 H         -6.4640920580       -0.8494022134        0.0508087132
 H         -7.2037028937        0.4714223132        0.9644448127
 H         -5.4758053387        2.0205611699        0.2898557626
 H         -6.0254549866        1.1602882508       -1.1609144188
 O         -4.0311449022       -0.2053306120       -1.5776186247
 C         -2.8326252613       -0.7857963550       -1.9581975605
 O         -2.9232345754       -1.5403564006       -2.9476592796
 H          2.0287186030       -0.4924697984       -0.5743731173
 C          1.5426042507       -1.3056622261       -0.0637090382
 C          0.3131472704       -1.7657594090       -0.5042519624
 C         -0.2994430206       -2.8070786837        0.1881978672
 C          0.3055733924       -3.3692338793        1.2953838968
 C          1.5345908057       -2.9074066864        1.7328964968
 C          2.1512868803       -1.8649529876        1.0512892210
 N          3.3685748898       -1.3452794279        1.5009291943
 S          4.4290284065       -0.5361332483        0.5097623716
 O          4.5475554550       -1.1720498266       -0.7830123379
 O          5.6527305331       -0.4612463059        1.2807378185
 C          3.7630792715        1.1054264210        0.3195334967
 C          4.1501726459        1.8306322869       -0.7905310327
 C          3.6798033984        3.1245423534       -0.9466673299
 C          2.8320483757        3.6683747885        0.0058947373
 C          2.4539386850        2.9274976767        1.1143814942
 C          2.9248083869        1.6348011585        1.2792825776
 H          2.6317861509        1.0346202461        2.1241273781
 H          1.7870543692        3.3479656386        1.8495922962
 H          2.4608416604        4.6733868672       -0.1194495284
 H          3.9712856226        3.7012669342       -1.8101982616
 H          4.7995581924        1.3638874656       -1.5144178347
 H          3.8105043486       -1.8219044914        2.2709399152
 H          2.0072519543       -3.3415292729        2.6007102513
 H         -0.1815418680       -4.1752095008        1.8237380451
 H         -1.2634012507       -3.1633488517       -0.1505842326
 C         -0.3985656688       -1.1642824925       -1.6899416851
 H         -0.7316415424       -1.9921386563       -2.3379380148
 C          0.5029349751       -0.2838933021       -2.5422760529
 C         -0.0786391923        0.7435854584       -3.4656146243
 C          0.7059407904        1.1741252647       -2.2645442333
 H          1.6925612406        1.5875229647       -2.4163334617
 H          0.1804900123        1.6041202960       -1.4271603040
 H         -1.1511272446        0.8739547905       -3.4526574569
 H          0.3637738567        0.8641215220       -4.4429776154
 H          1.3656150278       -0.8315972083       -2.9119548356
 O         -0.7033455399        0.6299996689        0.6148796112
