  62
        -98.94154042
 C         -1.3236372092       -1.5571435307       -0.1578477697
 C         -2.4733310592       -1.1768518813        0.5665810906
 C         -3.1334460700        0.0740186783        0.1519471008
 C         -2.6230281707        0.7708765886       -0.8796067493
 C         -3.0870507815        2.0835853184       -1.4593974092
 C         -4.6008217617        2.2854999475       -1.6244537588
 C         -5.1941148220        3.2892499172       -0.6340652887
 H         -4.4877259625        4.1129742276       -0.5110643388
 H         -6.1089319124        3.7044359167       -1.0628235385
 C         -5.5455810714        2.7192937669        0.7388715214
 H         -6.4223030811        2.0741624964        0.6495220915
 H         -5.8216215317        3.5567223767        1.3839521315
 C         -4.4304321608        1.9238031875        1.4201921011
 H         -4.6284773206        1.9205466674        2.4944655712
 H         -3.4662979411        2.4132478481        1.2789100709
 C         -4.3460043001        0.4624362176        0.9531299010
 H         -4.3259983195       -0.2005635724        1.8238353310
 H         -5.2457049801        0.1968536671        0.3908993912
 H         -5.1134186911        1.3280877472       -1.5488173088
 H         -4.7746796221        2.6670111975       -2.6319273288
 H         -2.5962057318        2.1497944087       -2.4333829993
 H         -2.6655956018        2.8864618586       -0.8479134092
 O         -1.5184190106        0.3565591493       -1.5613147596
 C         -0.8270980498       -0.7844217303       -1.2050721498
 O          0.1886394101       -1.0089386197       -1.8925427800
 O         -2.9261001787       -1.8498435716        1.5344678907
 C         -0.5495108284       -2.7935080202        0.2596908401
 C          0.8809373915       -2.4193994394        0.5629266698
 C          1.9705185218       -3.1998822488        0.1967619195
 C          3.2603447316       -2.7823717281        0.4779099893
 C          3.4926556111       -1.5721988880        1.1055153993
 C          2.4083664407       -0.7908462586        1.4868148195
 C          1.1189205909       -1.2317613993        1.2432392398
 H          0.2893155606       -0.6111428798        1.5495625700
 N          2.5814388302        0.4653465015        2.1077882095
 S          2.0619255592        1.8036835112        1.2390725197
 O          2.4062600587        2.9424963414        2.0642695397
 O          0.6703162592        1.6632948104        0.8969606900
 C          3.0926455089        1.8018237318       -0.2172101005
 C          4.2286515385        2.5894956725       -0.2169113307
 C          5.0791469482        2.5437324130       -1.3090256809
 C          4.7860934885        1.7053412429       -2.3744950509
 C          3.6450771589        0.9186813322       -2.3565022507
 C          2.7854416992        0.9617489317       -1.2685676905
 H          1.8893082995        0.3605363812       -1.2414652503
 H          3.4086675791        0.2642700921       -3.1802145906
 H          5.4489031683        1.6647812633       -3.2244577210
 H          5.9655794479        3.1571752635       -1.3251241711
 H          4.4118287483        3.2274445626        0.6327580093
 H          3.5271622101        0.6320137320        2.4255029693
 H          4.4990742009       -1.2319839474        1.2978757991
 H          4.0964101719       -3.3985895376        0.1847704691
 H          1.8097179522       -4.1333902189       -0.3173615505
 H         -1.0252258680       -3.1408575605        1.1892783302
 C         -0.6764111180       -3.8795230203       -0.7890841899
 C         -0.6540911571       -5.3250844703       -0.3930095900
 C         -1.9355936276       -4.6902055510       -0.8393985097
 H         -2.3387434476       -4.9577801012       -1.8045259496
 H         -2.6896243375       -4.4759897714       -0.0960358695
 H         -0.1789976268       -6.0337723200       -1.0544709901
 H         -0.5433289967       -5.5548684902        0.6559199100
 H         -0.2245550884       -3.5972712200       -1.7335972100
