  62
        -98.94164862
 C         -2.3184416572       -0.7694799463        0.2196838019
 C         -1.5773432409       -0.0272939111       -0.7286029853
 C         -1.8423302927        1.4228281619       -0.7866584422
 C         -2.7118948188        1.9706338444        0.0785458238
 C         -3.2105929529        3.3927968373        0.1733158174
 C         -2.2291827437        4.5327749599       -0.1106156140
 C         -0.8144482229        4.3162650972        0.4450864517
 H         -0.5245214183        5.1882087552        1.0347242318
 H         -0.7979941697        3.4524206597        1.1134066416
 C          0.2333555309        4.1121748818       -0.6502124999
 H          0.0570723236        4.8307327245       -1.4541063019
 H          1.2213368611        4.3179882101       -0.2306723479
 C          0.2759438494        2.6990760877       -1.2261262029
 H          0.5897203169        2.0079233162       -0.4397897588
 H          1.0407157567        2.6722687615       -2.0066075366
 C         -1.0510915576        2.1852015367       -1.8117130969
 H         -1.6311604857        2.9967903201       -2.2450473491
 H         -0.8163825013        1.4673493808       -2.6022711973
 H         -2.1708835870        4.7090430216       -1.1835088068
 H         -2.6614170316        5.4318374425        0.3328214186
 H         -4.0699262440        3.4878449568       -0.4985153222
 H         -3.5923954184        3.4897711123        1.1932427806
 O         -3.3482821849        1.2270379092        1.0306587107
 C         -3.1608018011       -0.1386488549        1.1352902288
 O         -3.7917927321       -0.6726085904        2.0711579431
 H         -0.2173665525       -1.1942630626        1.8198813817
 C          0.1749486070       -1.9507496824        1.1547201593
 C         -0.6874676582       -2.6330115127        0.3046214855
 C         -0.1566957831       -3.5992899390       -0.5401664654
 C          1.2032753438       -3.8591645804       -0.5418828584
 C          2.0626597740       -3.1457098503        0.2729026919
 C          1.5404017229       -2.1747174407        1.1198547967
 N          2.3735135089       -1.3868498768        1.9441812043
 S          2.4353451536        0.2511638444        1.5870397322
 O          3.3538085247        0.8145612517        2.5541234905
 O          1.1043099514        0.8004081453        1.5810059114
 C          3.1801925338        0.3245648033       -0.0338809211
 C          2.4484639541       -0.0511387044       -1.1430270967
 C          3.0735955213       -0.0470944280       -2.3814200338
 C          4.4041107934        0.3249122920       -2.4909211251
 C          5.1241667899        0.6970203538       -1.3654672296
 C          4.5095560880        0.6920406197       -0.1243348188
 H          5.0269176758        0.9731295233        0.7788329064
 H          6.1588771850        0.9877750646       -1.4504613517
 H          4.8813544728        0.3253540209       -3.4582869500
 H          2.5066109624       -0.3378106720       -3.2512100739
 H          1.4098772388       -0.3288038382       -1.0475627598
 H          3.3187372561       -1.7390610953        2.0175967445
 H          3.1266803545       -3.3281722372        0.2510720145
 H          1.6012536154       -4.6130150134       -1.2038275307
 H         -0.8032126421       -4.1358226660       -1.2147615794
 C         -2.1516728406       -2.2727476840        0.3674154918
 H         -2.5066451122       -2.4970038958        1.3877407399
 C         -3.0166516738       -3.0874545166       -0.5838807933
 C         -4.2846348763       -2.5249411726       -1.1517961521
 C         -3.1071504786       -2.7682434808       -2.0448006178
 H         -3.1596791854       -3.5870622797       -2.7472581037
 H         -2.5483984932       -1.9180300200       -2.4018986312
 H         -5.1406725194       -3.1778632167       -1.2343427501
 H         -4.5379085408       -1.5050273617       -0.9000250498
 H         -3.0440698152       -4.1373339378       -0.3089398906
 O         -0.7468902655       -0.5441310175       -1.5204161741
