  62
        -98.94593767
 C          2.1116732058        1.4929381667        0.0059063121
 C          1.8348193956        0.3753228195       -0.8180499519
 C          2.8982215671       -0.6376147219       -0.8940319997
 C          4.0489803409       -0.4399420509       -0.2256051086
 C          5.1911902736       -1.4123135971       -0.1775979265
 C          5.0575722927       -2.3675653514        1.0167694640
 C          3.6771445807       -3.0126473367        1.1411677341
 H          3.7115519793       -3.6894520626        1.9976293596
 H          2.9412935986       -2.2390514755        1.3727851036
 C          3.2233260280       -3.7859458248       -0.1046823566
 H          4.0843855389       -4.0101861873       -0.7353911482
 H          2.7979802976       -4.7401174063        0.2129019921
 C          2.1541719834       -3.0747168247       -0.9362429847
 H          1.3367514900       -2.7566835437       -0.2845337580
 H          1.7490736197       -3.7944965814       -1.6525380615
 C          2.6330810236       -1.8552152568       -1.7339413539
 H          3.5149727629       -2.1198327280       -2.3208546890
 H          1.8343635939       -1.5710428849       -2.4252282169
 H          5.8182849814       -3.1448722640        0.9233446295
 H          5.2570888826       -1.8062307059        1.9326120981
 H          5.2208315094       -1.9775675240       -1.1070197176
 H          6.1196588461       -0.8475247523       -0.0773882513
 O          4.2874264749        0.6613947520        0.5321866235
 C          3.3218087387        1.6424541713        0.6833840238
 O          3.6542365369        2.5829827842        1.4330100434
 H         -1.4752674324        2.4694274951       -0.8991945118
 C         -1.4000935700        1.9788882796        0.0581708843
 C         -0.1932696248        1.9624531222        0.7365106611
 C         -0.1298608458        1.3112316901        1.9663168894
 C         -1.2456858828        0.6973294196        2.5011466059
 C         -2.4489616297        0.7082356476        1.8163096810
 C         -2.5195014373        1.3464574817        0.5860634365
 N         -3.7287394929        1.3439134290       -0.1271678693
 S         -4.6269337631       -0.0661722157       -0.1598612956
 O         -5.3757906963       -0.0048051187       -1.3960495437
 O         -5.4182850993       -0.1609744913        1.0427194547
 C         -3.4512389201       -1.4084089397       -0.2094796675
 C         -2.4640339508       -1.3925983214       -1.1741836061
 C         -1.5532457008       -2.4347909860       -1.2178238815
 C         -1.6457345386       -3.4724627327       -0.3033176979
 C         -2.6456907778       -3.4767279163        0.6568154620
 C         -3.5574297140       -2.4347924206        0.7073876415
 H         -4.3462512787       -2.3943911297        1.4411833176
 H         -2.7149048571       -4.2849719086        1.3671032048
 H         -0.9323060476       -4.2808749406       -0.3396168635
 H         -0.7676332193       -2.4171398708       -1.9554490943
 H         -2.3996747250       -0.5746668933       -1.8729799095
 H         -3.6669663147        1.7613521566       -1.0440857808
 H         -3.3301812400        0.2356607583        2.2188409326
 H         -1.1806356950        0.2011977558        3.4576392380
 H          0.8139372785        1.2912618188        2.4947933038
 C          1.0668671374        2.5814354511        0.1836779633
 H          1.4699672299        3.2710670386        0.9385234626
 C          0.8696437019        3.3403206784       -1.1115274527
 C          0.3102059182        4.7303287199       -1.0877068831
 C          1.7573097287        4.5095864139       -1.4088278626
 H          2.0896941852        4.6593770810       -2.4251871283
 H          2.4956928312        4.7743546055       -0.6660175793
 H          0.0629449059        5.1523189646       -0.1253363132
 H         -0.3496251410        5.0372795354       -1.8853224074
 H          0.6058770422        2.6954763265       -1.9418712859
 O          0.7624450529        0.2285417122       -1.4589008658
