  62
        -98.93284481
 C         -1.8186639730       -0.7544027956        0.3668740005
 C         -2.1959657410        0.5479396938       -0.0434419575
 C         -3.5940449036        0.7522616283       -0.4672769985
 C         -4.4293331330       -0.3026695017       -0.4550704532
 C         -5.8946538155       -0.3360244677       -0.7991616369
 C         -6.7769249293        0.2559777114        0.3122343525
 C         -6.2526592100        1.5498872778        0.9297952326
 H         -6.8993515515        1.7999279839        1.7751013939
 H         -5.2514753408        1.3764086846        1.3285710157
 C         -6.2240317168        2.7542868006       -0.0081294058
 H         -7.2361386841        2.9505096168       -0.3693056407
 H         -5.9093772167        3.6181899681        0.5829652990
 C         -5.2915290779        2.6401591442       -1.2157310023
 H         -5.1976619356        3.6401507689       -1.6493100488
 H         -5.7255454114        2.0096659015       -1.9870571229
 C         -3.8761397971        2.1743593975       -0.8882469427
 H         -3.2389503745        2.3542751578       -1.7626218695
 H         -3.4629964875        2.8097557409       -0.0967086448
 H         -6.8544363372       -0.4854085871        1.1112949584
 H         -7.7770441210        0.4213717938       -0.0919596183
 H         -6.1618613537       -1.3867133176       -0.9320620873
 H         -6.0672806690        0.1712002826       -1.7437625814
 O         -4.0233009335       -1.5418368392       -0.0614148220
 C         -2.7274535725       -1.8128512650        0.3518317664
 O         -2.5420623908       -3.0030890828        0.6628417721
 O         -1.3928092364        1.5204292749       -0.0437522478
 C         -0.3804904141       -0.9307136484        0.8153940172
 C          0.5210346781       -1.3570611936       -0.3144572919
 C          0.1581386368       -2.3607268552       -1.2062319927
 C          1.0249746468       -2.7475483119       -2.2123614899
 C          2.2738971764       -2.1635838365       -2.3322817097
 C          2.6467888700       -1.1607635613       -1.4453701165
 C          1.7602184140       -0.7511424880       -0.4594502051
 H          2.0441635596        0.0460847598        0.2093722570
 N          3.9025994487       -0.5463220825       -1.5328723998
 S          4.7274405127       -0.1415671306       -0.1313005250
 O          6.1177382703       -0.0969498460       -0.5293438295
 O          4.4005978112       -1.0395269925        0.9506252724
 C          4.1781947010        1.5098783650        0.2391194972
 C          3.6341970894        1.7941533634        1.4757379159
 C          3.2194253743        3.0891620916        1.7437577380
 C          3.3578305208        4.0719550523        0.7760960657
 C          3.9113412833        3.7712632366       -0.4594102017
 C          4.3269122226        2.4785803208       -0.7335795132
 H          4.7643291930        2.2065121938       -1.6796525974
 H          4.0167864717        4.5393900155       -1.2085460693
 H          3.0309014977        5.0779612703        0.9869084925
 H          2.7872866960        3.3239679908        2.7033795628
 H          3.5397182015        0.9995951965        2.1998155938
 H          4.5161805304       -0.9252824122       -2.2392005595
 H          2.9550051313       -2.4808542623       -3.1073169940
 H          0.7311086523       -3.5255811933       -2.9010170570
 H         -0.8022043667       -2.8416040278       -1.0962396699
 H         -0.0590694494        0.0783095557        1.1208252684
 C         -0.2330110932       -1.8340969870        2.0323077335
 C          0.3000394975       -3.2302072604        1.9681668812
 C          1.1243937830       -2.1460550293        2.5915665107
 H          1.2495063801       -2.1469503220        3.6642135441
 H          1.9942731230       -1.8033368723        2.0490144563
 H         -0.1599605415       -3.9719897476        2.6030116757
 H          0.6057345160       -3.6148361788        1.0079823894
 H         -1.0242150854       -1.6609341267        2.7556697815
