  62
        -98.94843238
 C         -0.7806590694       -1.2338653255        0.0795443503
 C         -1.5321313959       -0.6811873468        1.1428096097
 C         -2.4068809148        0.4449682623        0.7914578804
 C         -2.4312774956        0.8872066725       -0.4794605201
 C         -3.3771126015        1.9284988572       -1.0031488634
 C         -4.6758807632        1.2853967110       -1.5122552294
 C         -5.3143638430        0.3053290571       -0.5282353854
 H         -6.2376946053       -0.0584308015       -0.9841993176
 H         -4.6560331306       -0.5575182579       -0.4040764930
 C         -5.6271583976        0.9036599546        0.8503271094
 H         -6.6306464944        0.5932961676        1.1490766208
 H         -5.6296103985        1.9926277317        0.7910410383
 C         -4.6747050878        0.4599127203        1.9619867731
 H         -4.6042658722       -0.6307793653        1.9717588574
 H         -5.1004626483        0.7681978518        2.9207436751
 C         -3.2531486415        1.0316024445        1.8859673769
 H         -3.2980298608        2.1190702917        1.7983039611
 H         -2.7452777208        0.7846766122        2.8233500637
 H         -5.3854762467        2.0814324231       -1.7450226142
 H         -4.4547860721        0.7455650566       -2.4356374044
 H         -3.6014113482        2.6424852916       -0.2131788051
 H         -2.8973862443        2.4481184991       -1.8327004541
 O         -1.6362099770        0.3811642539       -1.4550157281
 C         -0.7885274947       -0.6868299465       -1.2034902072
 O         -0.1136077365       -1.0498769500       -2.1839854027
 H          1.5366768510       -0.3897468980        1.1036616742
 C          2.1079416312       -1.0582227567        0.4750632698
 C          1.5085038225       -2.2094067404       -0.0216417169
 C          2.2667503538       -3.0703645412       -0.8044020779
 C          3.5865095577       -2.7721742969       -1.0952557062
 C          4.1747701609       -1.6173194647       -0.6153574155
 C          3.4272322744       -0.7555663933        0.1809886784
 N          4.0038502798        0.4133160430        0.6952220623
 S          3.0938816860        1.7292900554        1.1371710169
 O          4.0528473539        2.8135033177        1.1980151587
 O          2.3837696211        1.4637965499        2.3641825069
 C          1.9341589873        2.0721381450       -0.1753857147
 C          2.2330407229        1.7659693087       -1.4872397516
 C          1.3427295863        2.1396702437       -2.4811218289
 C          0.1879253278        2.8303536410       -2.1528974072
 C         -0.0961181488        3.1358497420       -0.8312394067
 C          0.7793141229        2.7456705078        0.1679238691
 H          0.5872158311        2.9456958881        1.2104456035
 H         -0.9945302977        3.6727431911       -0.5727529585
 H         -0.4961453586        3.1262789961       -2.9325956770
 H          1.5527352325        1.8870940900       -3.5077598505
 H          3.1383873420        1.2334909136       -1.7288832444
 H          4.9058280269        0.6659715225        0.3212648737
 H          5.2019339964       -1.3814844641       -0.8474420533
 H          4.1634356494       -3.4460866227       -1.7099681071
 H          1.8242562446       -3.9725651463       -1.1925835543
 C          0.0676045768       -2.4652156765        0.3378873823
 H          0.0138016552       -2.6354714351        1.4239686944
 C         -0.5342755770       -3.6602612935       -0.3735074285
 C         -0.3551330025       -5.0415716115        0.1795192387
 C         -1.6923793693       -4.3702277365        0.2586740407
 H         -2.4892401959       -4.7265440853       -0.3768895155
 H         -2.0295312932       -4.0088612403        1.2194936023
 H          0.2138200982       -5.1446937612        1.0911185166
 H         -0.2365876305       -5.8630796619       -0.5107530247
 H         -0.5532343737       -3.5360671625       -1.4506789908
 O         -1.4884659329       -1.1210544016        2.3245612963
