  62
        -98.92945009
 C         -2.3272574228       -1.1608330728       -0.0398903882
 C         -2.4882730695        0.2053161419        0.2968559299
 C         -3.8736220974        0.6517032395        0.5326023232
 C         -4.8775752279       -0.2397796314        0.4594427081
 C         -6.3405266773        0.0769043527        0.5874870380
 C         -6.8578895253        0.7096212030       -0.7202619179
 C         -7.3103484181        2.1633084823       -0.5811641559
 H         -7.4449471915        2.5613861286       -1.5891511412
 H         -8.2829223061        2.1861510592       -0.0851375429
 C         -6.3660200746        3.0846914764        0.1970299380
 H         -6.6772315296        4.1099708376       -0.0140140276
 H         -6.5042233129        2.9321132810        1.2683945495
 C         -4.8731507111        2.9468542136       -0.1290878126
 H         -4.7337633758        2.5411527196       -1.1315123106
 H         -4.4313507408        3.9453959532       -0.1271850238
 C         -4.0720828808        2.1015101872        0.8791895561
 H         -4.5312963282        2.1805391923        1.8684059424
 H         -3.0601006498        2.5108206760        0.9536402688
 H         -6.0656915782        0.6440023115       -1.4692022591
 H         -7.6971476855        0.1251168463       -1.1002073375
 H         -6.4993959187        0.7492420092        1.4275616375
 H         -6.8589912733       -0.8610666459        0.7869816719
 O         -4.6765698953       -1.5544390225        0.1804058171
 C         -3.4070895464       -2.0466590670       -0.0695709156
 O         -3.3691531712       -3.2732187510       -0.2921868892
 O         -1.5360537601        1.0212005500        0.4002972611
 C         -0.9606448199       -1.7570834112       -0.3269045389
 C          0.0525813055       -1.2787748463        0.6838312156
 C         -0.1688639517       -1.5540592219        2.0315211875
 C          0.7384635507       -1.1562915908        2.9932355868
 C          1.9014665855       -0.4990897679        2.6308200886
 C          2.1303043863       -0.2175905570        1.2901803120
 C          1.2063925676       -0.6008292527        0.3276129151
 H          1.4036675268       -0.3466096350       -0.7004146798
 N          3.2906749417        0.4613874268        0.8845977821
 S          4.0068260358       -0.0036973257       -0.5714006592
 O          3.4151184107        0.7466336335       -1.6503961240
 O          3.9709453331       -1.4432874907       -0.7017377279
 C          5.6831574358        0.5466035254       -0.3059908148
 C          6.0001360741        1.8693732328       -0.5514342069
 C          7.2955636708        2.3021542312       -0.3162627792
 C          8.2467761307        1.4110905155        0.1582581511
 C          7.9143583630        0.0862601217        0.3981581153
 C          6.6204852672       -0.3530076600        0.1660328548
 H          6.3186016199       -1.3751925208        0.3287422858
 H          8.6567671159       -0.6048589782        0.7634644995
 H          9.2543382657        1.7506042779        0.3393144713
 H          7.5585919049        3.3305234331       -0.5046454422
 H          5.2302720318        2.5226206395       -0.9280946694
 H          3.9693360511        0.5640546769        1.6263692945
 H          2.6171719435       -0.1965066967        3.3802509174
 H          0.5466206867       -1.3705036261        4.0340808147
 H         -1.0720868713       -2.0795071940        2.3131074907
 H         -1.0871000641       -2.8432064788       -0.1775578121
 C         -0.4953160494       -1.5715802447       -1.7636727610
 C         -1.4754417701       -1.4779056177       -2.8935246299
 C         -0.6694738225       -0.2785107586       -2.4991921157
 H          0.1283622866        0.0485655313       -3.1507252320
 H         -1.1616612656        0.5278326637       -1.9787944586
 H         -1.2376199815       -1.9787367744       -3.8199399579
 H         -2.5270232404       -1.4929986211       -2.6455526332
 H          0.4185629503       -2.1240200763       -1.9659718497
