  62
        -98.94022757
 C         -2.2517481299       -1.0652886017       -0.4032736186
 C         -3.5702699498       -1.0555057612        0.1172936214
 C         -4.4349393299        0.0374873083       -0.3382504996
 C         -3.9596766099        0.9417386675       -1.2135773005
 C         -4.7203772100        2.1096900669       -1.7805531716
 C         -4.7149227499        3.3505633778       -0.8770740529
 C         -5.5846905498        3.2459676590        0.3763965073
 H         -5.6592162098        4.2501491495        0.7983782863
 H         -6.5909496298        2.9357993988        0.0933161776
 C         -5.0352602998        2.2985520501        1.4521477882
 H         -3.9778165198        2.1014183399        1.2590914183
 H         -5.0958474297        2.7831851111        2.4292117877
 C         -5.7760712598        0.9656729602        1.5613025095
 H         -6.8046148197        1.1434873805        1.8826047894
 H         -5.2826836197        0.3622508010        2.3273179501
 C         -5.8040482598        0.1499385889        0.2619280804
 H         -6.1477152298       -0.8599664508        0.4978843614
 H         -6.4960086699        0.5987279782       -0.4500187300
 H         -3.6831840799        3.5666476281       -0.5891736532
 H         -5.0756329099        4.1906612672       -1.4750649737
 H         -4.2342417000        2.3681636560       -2.7237215919
 H         -5.7485796600        1.8126145767       -1.9883419313
 O         -2.6953594299        0.8847090870       -1.7105777006
 C         -1.8008336699       -0.0960952926       -1.2998427396
 O         -0.6710215699        0.0057480269       -1.8151373098
 O         -4.0032497498       -1.9198842404        0.9252279023
 C         -1.2982489398       -2.1412458712        0.0912395724
 C         -0.3014666998       -1.4889183703        1.0181176717
 C         -0.7251728097       -1.1285829090        2.2958870413
 C          0.1312269504       -0.4884048081        3.1695750506
 C          1.4253893103       -0.1870143585        2.7825771503
 C          1.8590436303       -0.5422684698        1.5109114206
 C          0.9991688702       -1.1963996707        0.6377581313
 H          1.3509844702       -1.4432777616       -0.3494254085
 N          3.1851653702       -0.2764510302        1.1170608402
 S          3.4614612701        0.3523325683       -0.4292907504
 O          2.6608250801        1.5392679281       -0.6315838815
 O          3.3342111601       -0.7051142627       -1.3980686693
 C          5.1812150101        0.8032304885       -0.2676451709
 C          6.1405021301       -0.1836892016       -0.3924744400
 C          7.4754426401        0.1561728885       -0.2412934504
 C          7.8277899502        1.4697313288        0.0313754582
 C          6.8544936102        2.4500081189        0.1518886973
 C          5.5174640402        2.1160777787        0.0029213677
 H          4.7267239202        2.8453912588        0.0777875571
 H          7.1307765802        3.4711116791        0.3601338963
 H          8.8675135502        1.7318978189        0.1473892879
 H          8.2350854801       -0.6026851116       -0.3374009997
 H          5.8191961801       -1.1879703319       -0.6137468390
 H          3.6683688903        0.2936578505        1.8002112597
 H          2.0960021604        0.3187638422        3.4611193897
 H         -0.2106117596       -0.2155388572        4.1566563504
 H         -1.7422237697       -1.3518466487        2.5874097416
 H         -1.9203646298       -2.8212126906        0.6908096431
 C         -0.6699074799       -2.9295899923       -1.0360397669
 C         -0.0520543399       -4.2620580320       -0.7385356156
 C         -1.3356210699       -4.1861489428       -1.5079881356
 H         -1.3199737800       -4.4102582138       -2.5640326054
 H         -2.2474993999       -4.4840764923       -1.0113120753
 H          0.8495197001       -4.5380997125       -1.2637212554
 H         -0.0929759398       -4.6118699410        0.2819974047
 H         -0.1964290599       -2.3074381731       -1.7862778975
