  62
        -98.93825169
 C          1.6738240908        1.6311754996        0.1105764590
 C          1.5185304704        0.2721875496       -0.2542042009
 C          2.6162574502       -0.6271169807        0.1389977690
 C          3.6699306004       -0.1263459809        0.8089416388
 C          4.8977854803       -0.8960326712        1.2059357387
 C          5.8137403001       -1.0991480415       -0.0179054114
 C          5.9713745996       -2.5566776115       -0.4518033614
 H          6.4531439895       -2.5557872017       -1.4319877714
 H          6.6434531296       -3.0633136417        0.2441556486
 C          4.6772588794       -3.3719172512       -0.5320648612
 H          4.9088647791       -4.2801792013       -1.0925243112
 H          4.3827084395       -3.6906785111        0.4688224288
 C          3.4846073095       -2.6719922909       -1.1965226911
 H          2.9547172193       -3.4087627608       -1.8034447710
 H          3.8275093397       -1.8904547310       -1.8746715811
 C          2.4586069298       -2.0804790506       -0.2121109610
 H          1.4633925497       -2.1455314104       -0.6613962509
 H          2.4479317797       -2.6759763906        0.7047337590
 H          5.4129865301       -0.5122081714       -0.8469942714
 H          6.8051262802       -0.6982433417        0.1988417585
 H          5.4114560705       -0.3147184413        1.9719629586
 H          4.6094929901       -1.8546787211        1.6314347188
 O          3.7763306708        1.1857439691        1.1473455988
 C          2.7838028210        2.0927063993        0.8176032289
 O          3.0003009613        3.2589822693        1.2043897788
 H         -1.7510135294        1.7710925304       -1.4157936206
 C         -1.7877443692        1.7521306904       -0.3383631106
 C         -0.6991334391        2.1844145002        0.4000133992
 C         -0.7755681289        2.1371567302        1.7896414793
 C         -1.9122063590        1.6687319706        2.4199452094
 C         -2.9940111492        1.2252970008        1.6783333295
 C         -2.9237580693        1.2610739008        0.2928549895
 N         -4.0110140995        0.8003744810       -0.4740199303
 S         -4.6128619799       -0.7291749988       -0.1552264502
 O         -5.4109907801       -1.0637305987       -1.3134152901
 O         -5.3074878997       -0.7104552386        1.1080027598
 C         -3.1940206601       -1.8035673092       -0.0561552804
 C         -2.6545863504       -2.2872556794       -1.2309306004
 C         -1.5389120606       -3.1045968596       -1.1700613805
 C         -0.9785853505       -3.4150509597        0.0588554694
 C         -1.5255181203       -2.9125825296        1.2286303795
 C         -2.6450302601       -2.0986008193        1.1746850496
 H         -3.1044221899       -1.6979333492        2.0633086496
 H         -1.0823437302       -3.1503710597        2.1825568594
 H         -0.1101092107       -4.0532848800        0.1054854694
 H         -1.1064848408       -3.4912470698       -2.0790075106
 H         -3.1242269904       -2.0307880893       -2.1671134504
 H         -3.8668979696        0.9062052909       -1.4682698304
 H         -3.8850899892        0.8462650210        2.1519250196
 H         -1.9573845188        1.6430375506        3.4983581394
 H          0.0772956512        2.4663913900        2.3681691292
 C          0.5910978310        2.6399652698       -0.2350196209
 H          0.8931648013        3.5859900398        0.2348297890
 C          0.5087966109        2.8428959898       -1.7329855409
 C         -0.1328474889        4.0801535500       -2.2834671909
 C          1.3527439211        3.9030930596       -2.3710434310
 H          1.7924164409        3.7002680895       -3.3361666011
 H          1.9807190113        4.4966693795       -1.7226879211
 H         -0.7121355090        4.0038345501       -3.1912923208
 H         -0.5169284786        4.7993505501       -1.5759537708
 H          0.3840813506        1.9149070798       -2.2787604509
 O          0.5198454702       -0.1719253802       -0.8774896008
