  62
        -98.92936328
 C          1.4831498577        1.0074973114        0.6772888175
 C          2.4331971311        1.1522238457       -0.3611611948
 C          3.7555188253        0.5352508495       -0.1269382661
 C          3.9847079076       -0.1160707799        1.0251684504
 C          5.2325668257       -0.8476304767        1.4371860214
 C          5.1377995709       -2.3381366790        1.0694063156
 C          5.6093451332       -2.6844786408       -0.3423647875
 H          6.6953255352       -2.5809427980       -0.3929791630
 H          5.3719546604       -3.7368688344       -0.5147457431
 C          4.9849530369       -1.8494233319       -1.4632124834
 H          3.9144038643       -1.7336688997       -1.2825392510
 H          5.0956401444       -2.4057687830       -2.3960904616
 C          5.6411451728       -0.4702425685       -1.6252484608
 H          6.5681739033       -0.4472303776       -1.0527498123
 H          5.9197058989       -0.3236654118       -2.6708744345
 C          4.7594496028        0.7232389133       -1.2319556797
 H          5.4023706091        1.5720808470       -0.9761017166
 H          4.1627530360        1.0337994100       -2.0954275985
 H          4.0975555015       -2.6498368516        1.1973497528
 H          5.7389380860       -2.9128480022        1.7770751744
 H          6.1126392399       -0.3889344360        0.9964690877
 H          5.2976343721       -0.7616070565        2.5239303449
 O          3.0367322298       -0.2392581352        1.9965495230
 C          1.7783751727        0.3086803703        1.8497965628
 O          1.0187978352        0.1170701608        2.8228268844
 H         -1.1227630685       -0.7328329831        0.4219394110
 C         -1.1971367300       -0.2065774564       -0.5187744672
 C         -0.6113718162        1.0492768158       -0.6505530275
 C         -0.6737209034        1.6668704977       -1.8943015108
 C         -1.3165924079        1.0505308202       -2.9544996653
 C         -1.9287185046       -0.1797511751       -2.8039958804
 C         -1.8598932205       -0.8174576440       -1.5714694549
 N         -2.4721749782       -2.0643263600       -1.3637255042
 S         -3.2634556868       -2.3286973471        0.0869390522
 O         -2.3194278725       -2.6942039780        1.1130301339
 O         -4.2676643506       -3.3234263265       -0.2266375553
 C         -4.0419030964       -0.7694932041        0.4717855943
 C         -3.6373790157       -0.0432757229        1.5728636738
 C         -4.2220774542        1.1902195647        1.8132809579
 C         -5.1955609410        1.6731792878        0.9530509913
 C         -5.5991269159        0.9267274606       -0.1436449680
 C         -5.0168175762       -0.3054745227       -0.3899843956
 H         -5.3108197361       -0.9162709888       -1.2279303874
 H         -6.3603907859        1.3028904742       -0.8077560634
 H         -5.6421896604        2.6367174729        1.1406574327
 H         -3.9069044647        1.7694858989        2.6663968474
 H         -2.8727648040       -0.4480255205        2.2177750487
 H         -3.0063524743       -2.4072635027       -2.1488099779
 H         -2.4399452690       -0.6497752350       -3.6300896043
 H         -1.3463358195        1.5448716827       -3.9136014619
 H         -0.1905495474        2.6120397022       -2.0601035981
 C          0.0744372864        1.5839092647        0.5825667832
 H         -0.4544961574        1.1348128967        1.4379560281
 C          0.0758138511        3.0803911235        0.8680788388
 C          0.6055957549        4.1463049495       -0.0412364283
 C         -0.8651920345        4.0621467348        0.2379540695
 H         -1.3047345861        4.8183857804        0.8711000776
 H         -1.5198236933        3.7062299112       -0.5411736173
 H          1.1660970437        4.9509886705        0.4139306105
 H          0.9933481640        3.8527055031       -1.0023269969
 H          0.2872469946        3.2362971809        1.9238729682
 O          2.2109241387        1.7595998078       -1.4380405352
