  62
        -98.93677930
 C         -2.4680265205       -0.4542425505       -0.1689404847
 C         -2.0544681908       -1.4864027015       -1.0424471370
 C         -1.3710706419       -2.6268396438       -0.4214101005
 C         -1.1943349109       -2.6378633968        0.9122785054
 C         -0.5128610218       -3.7358079562        1.6773595260
 C          0.9842316317       -3.4593574608        1.8638529064
 C          1.7171506170       -3.0873319884        0.5746281575
 H          1.3761324139       -2.1036634841        0.2430143850
 H          2.7762577095       -2.9842499309        0.8242683379
 C          1.5600013301       -4.0939454485       -0.5728442554
 H          2.5351582882       -4.2376192004       -1.0427249407
 H          1.2406709169       -5.0605407916       -0.1802593114
 C          0.5978693717       -3.6469569418       -1.6755529889
 H          0.7630251258       -4.2806519090       -2.5514615338
 H          0.8316973411       -2.6177678547       -1.9636753250
 C         -0.8946841719       -3.7260173436       -1.3283004308
 H         -1.1238619235       -4.7062307399       -0.9038561543
 H         -1.4610547292       -3.6121176168       -2.2574929224
 H          1.4441053098       -4.3463130182        2.3049203222
 H          1.0970507334       -2.6272341597        2.5625449279
 H         -0.9827784568       -3.8056434708        2.6603168859
 H         -0.6557891465       -4.6770511069        1.1492575125
 O         -1.6176482262       -1.6355361161        1.7228713720
 C         -2.2177255414       -0.4976947416        1.2035018541
 O         -2.4942178693        0.3678546231        2.0537822827
 O         -2.2569363773       -1.4562890516       -2.2890253531
 C         -3.1000669544        0.7985330153       -0.7684117245
 C         -2.2315813462        1.9654823953       -0.3603035681
 C         -2.5887497264        3.1274272214        0.3100232261
 C         -1.6262559434        4.0609330991        0.6642871005
 C         -0.2878269432        3.8542501701        0.3941736052
 C          0.0835087957        2.7000889064       -0.2857286125
 C         -0.8862032901        1.8005848765       -0.6845517345
 H         -0.5765660933        0.9135011266       -1.2190353677
 N          1.4308658804        2.4039783279       -0.5748071668
 S          1.8651122605        0.7850679893       -0.3077774390
 O          1.6079000952        0.0329778663       -1.5107215979
 O          1.2464783473        0.3065351597        0.9063539395
 C          3.6270080650        0.9485999258       -0.0853047960
 C          4.1582535331        0.9197499189        1.1897771289
 C          5.5257231731        1.0818943607        1.3500165750
 C          6.3327744239        1.2736003779        0.2387657329
 C          5.7847839163        1.2992886689       -1.0353675020
 C          4.4189687839        1.1354544230       -1.2026711898
 H          3.9480525613        1.1378658426       -2.1718102651
 H          6.4155480244        1.4453578153       -1.8972516703
 H          7.3961164080        1.4007469880        0.3663562144
 H          5.9541778759        1.0580825014        2.3390084721
 H          3.4903965960        0.7619525408        2.0217034885
 H          2.0700973309        3.0295916805       -0.1017177418
 H          0.4593857122        4.5666815749        0.7094865614
 H         -1.9291476165        4.9544720522        1.1893503307
 H         -3.6077130866        3.3180649825        0.5934111886
 H         -2.9670886112        0.6762983175       -1.8578084519
 C         -4.6008251872        0.7717419175       -0.5314948722
 C         -5.3001254927        1.2784988725        0.6904009700
 C         -5.5164562373        1.9549250304       -0.6318278230
 H         -6.4684307043        1.8081610187       -1.1205701904
 H         -5.0873299542        2.9273757416       -0.8076856358
 H         -6.1023529777        0.6757124102        1.0913656683
 H         -4.7028159005        1.7496579875        1.4533619950
 H         -4.9959253367       -0.1565952186       -0.9399657871
