  62
        -98.93651807
 C         -2.5277259062       -1.0268036196        0.0470629990
 C         -3.1544799242       -0.1570674663        0.9660764610
 C         -3.6261284622        1.1408931307        0.4446222274
 C         -3.4239033645        1.4261452881       -0.8555145690
 C         -3.7627394560        2.6939052926       -1.5935216111
 C         -2.7806009236        3.8352124051       -1.2837768871
 C         -2.4321738517        4.0005319326        0.1932409543
 H         -1.9983462983        3.0695432067        0.5637566838
 H         -1.6557712538        4.7669142337        0.2659097968
 C         -3.5915476711        4.4185953356        1.0949380285
 H         -3.1796671509        4.5877082858        2.0931291826
 H         -3.9966872905        5.3678847020        0.7379860522
 C         -4.7401953563        3.4149742250        1.2191197903
 H         -5.3857040228        3.4471173441        0.3456664681
 H         -5.3531512744        3.7269214027        2.0696941798
 C         -4.3063277289        1.9798060742        1.5001240700
 H         -5.1871724695        1.4041879602        1.8092017042
 H         -3.6384106035        1.9707074660        2.3690891057
 H         -3.2010782609        4.7661415737       -1.6678055826
 H         -1.8502792816        3.6365154759       -1.8227332502
 H         -3.7000061594        2.4623231931       -2.6590795907
 H         -4.7843237625        2.9921365189       -1.3779979490
 O         -2.8033302322        0.5572125089       -1.7055881711
 C         -2.3387719252       -0.6764026292       -1.2892562820
 O         -1.7910559136       -1.3522221885       -2.1813807869
 O         -3.3048841083       -0.4415740361        2.1861494440
 C         -2.0045318396       -2.3664417890        0.5314335495
 C         -0.5213573084       -2.4630913764        0.2691656631
 C          0.0910491917       -3.5885754430       -0.2658536251
 C          1.4528887911       -3.5942753079       -0.5143852563
 C          2.2338093489       -2.4890876436       -0.2308214594
 C          1.6340587900       -1.3622153988        0.3152919596
 C          0.2718731928       -1.3631169995        0.5701646125
 H         -0.1923365947       -0.4793712903        0.9926093372
 N          2.4155298844       -0.2284375005        0.6255864988
 S          3.2281224013        0.5734195402       -0.6163921241
 O          2.6164161162        1.8744316988       -0.7948903559
 O          3.3099922354       -0.2685321423       -1.7835317461
 C          4.8583154949        0.7842272190        0.0772221558
 C          5.4825711405        2.0130161080       -0.0061359928
 C          6.7589313126        2.1550158813        0.5165522251
 C          7.3862561943        1.0710163415        1.1104900883
 C          6.7451375551       -0.1563551100        1.1889901583
 C          5.4697153023       -0.3041946841        0.6679705229
 H          4.9377936317       -1.2397904456        0.7184393873
 H          7.2333570165       -0.9972582310        1.6547922107
 H          8.3792069482        1.1833482334        1.5163185873
 H          7.2571350525        3.1093920760        0.4583010789
 H          4.9548870554        2.8297197174       -0.4715714508
 H          1.8922850078        0.4623305714        1.1462048269
 H          3.2870474777       -2.4807781418       -0.4579508418
 H          1.9123212342       -4.4725155399       -0.9419755858
 H         -0.5002479904       -4.4575045845       -0.5037674551
 H         -2.1655936317       -2.3691886808        1.6200442533
 C         -2.8025054673       -3.4974915712       -0.0823978927
 C         -2.9812335041       -4.7883141405        0.6580241024
 C         -4.1351724609       -3.8445311318        0.5083373533
 H         -4.9407457688       -4.1117925735       -0.1588984591
 H         -4.4537384414       -3.2813825116        1.3734273378
 H         -2.9975127293       -5.7081032115        0.0930932700
 H         -2.5213540702       -4.8744159647        1.6307460984
 H         -2.7088477141       -3.5311648140       -1.1623418199
