  62
        -98.93799681
 C          2.2100689600        0.7636437914       -0.3518209696
 C          3.5489929879        1.1149511299       -0.0332967179
 C          4.3353846451        0.1110040240        0.6943319454
 C          3.7444794036       -1.0377269832        1.0686535605
 C          4.4331146920       -2.1665425281        1.7782837121
 C          5.0136090829       -3.1789445120        0.7807771344
 C          5.8410281704       -2.5416861616       -0.3356037047
 H          6.2248106385       -3.3519841522       -0.9591752491
 H          5.1842888706       -1.9362434485       -0.9644804104
 C          7.0099671504       -1.6763455497        0.1555649904
 H          7.8962257669       -1.9168116311       -0.4353168376
 H          7.2383245416       -1.9173232759        1.1943658520
 C          6.7823617723       -0.1692117740        0.0239610458
 H          6.4620900378        0.0653640204       -0.9944120117
 H          7.7381215119        0.3349012704        0.1896814485
 C          5.7692691734        0.4402544923        1.0013566371
 H          6.0208643088        0.1467228342        2.0226324364
 H          5.8486530934        1.5288406143        0.9275318497
 H          5.6302722545       -3.8910658214        1.3320671440
 H          4.1866672822       -3.7276697282        0.3240666655
 H          5.2254276875       -1.7634186506        2.4061930230
 H          3.7012355958       -2.6709381499        2.4116601857
 O          2.4464863072       -1.3189232104        0.7975470095
 C          1.6457248430       -0.4406522905        0.0746343728
 O          0.4896222618       -0.8653150958       -0.1072660641
 H         -1.0983962376        0.7587628523       -1.5458406863
 C         -1.0802535436        1.4353099014       -0.7057618334
 C          0.1051569743        2.0624126453       -0.3585987787
 C          0.1165168023        2.9049887569        0.7487821361
 C         -1.0327929724        3.1147384710        1.4880392650
 C         -2.2129543737        2.4787586905        1.1452917037
 C         -2.2289746678        1.6251346640        0.0508973786
 N         -3.4212229003        0.9618643538       -0.2960541769
 S         -4.3172590458        0.3043047391        0.9775124825
 O         -5.2024382612        1.3281748772        1.4788237673
 O         -3.4455806219       -0.3016091358        1.9582471892
 C         -5.2593495350       -0.9445204770        0.1240010430
 C         -6.5491524660       -0.6681151290       -0.2864216142
 C         -7.2564098866       -1.6433205336       -0.9720687671
 C         -6.6644272274       -2.8692068736       -1.2358443427
 C         -5.3677430209       -3.1314330297       -0.8184279269
 C         -4.6546784696       -2.1610434075       -0.1325703091
 H         -3.6466730713       -2.3253122768        0.2164873749
 H         -4.9093147438       -4.0854829888       -1.0239398144
 H         -7.2162046169       -3.6274673247       -1.7685576246
 H         -8.2648603484       -1.4448057500       -1.2972226107
 H         -6.9673191438        0.2971369159       -0.0532655275
 H         -3.2609712670        0.2661807293       -1.0123838456
 H         -3.1136770765        2.6129058947        1.7232998844
 H         -1.0099515437        3.7720726199        2.3445282690
 H          1.0433043220        3.3846969701        1.0327101008
 C          1.3884136220        1.7989631164       -1.1026395274
 H          2.0018695481        2.7131135636       -1.0563233358
 C          1.1700740007        1.5012716705       -2.5785456414
 C          2.2798816008        0.9258061666       -3.4055689986
 C          1.0490158872        0.1160469124       -3.1359480422
 H          0.3558032167       -0.0437605433       -3.9491839914
 H          1.1165835947       -0.7151121114       -2.4521558109
 H          3.1901756724        0.6558448751       -2.8900178639
 H          2.4384481841        1.3119088181       -4.4010424500
 H          0.5615815477        2.2663663141       -3.0515047729
 O          4.0634887518        2.2220425073       -0.3445872206
