  62
        -98.94004165
 C          2.2343009334        1.0820712564       -0.4715317896
 C          3.4852981713        0.8592272764        0.1599360205
 C          4.2088143900       -0.3507425202       -0.2411576141
 C          3.6762543448       -1.1665321659       -1.1686061195
 C          4.2958098342       -2.4332382780       -1.6941542167
 C          4.0366027475       -3.6642726143       -0.8148142307
 C          4.8127761995       -3.6978185650        0.5024695028
 H          4.7075323509       -4.7052508420        0.9097971585
 H          5.8722935470       -3.5360883642        0.3020123319
 C          4.3250896149       -2.6884196131        1.5513019830
 H          4.2374796050       -3.1842916606        2.5206777963
 H          3.3259976225       -2.3364001464        1.2820719843
 C          5.2415536862       -1.4797188450        1.7418504570
 H          4.7811220434       -0.8143253650        2.4763684960
 H          6.2038106100       -1.8087562718        2.1401094271
 C          5.4930986453       -0.6705417803        0.4628835874
 H          5.9629107311        0.2755362762        0.7421174781
 H          6.1650870363       -1.2137297361       -0.2008979026
 H          2.9649868178       -3.7258880981       -0.6095860423
 H          4.3141683757       -4.5452452488       -1.3982848087
 H          5.3698698489       -2.2918472951       -1.8179292788
 H          3.8518116044       -2.6114614722       -2.6758924985
 O          2.4836448933       -0.9097551951       -1.7678776475
 C          1.7210168537        0.2008890304       -1.4241520240
 O          0.6477644537        0.2798944878       -2.0519713179
 O          3.9779399848        1.6419956876        1.0155841095
 C          1.4450959117        2.3049203911       -0.0305393596
 C          0.3792828888        1.8600386363        0.9424944678
 C          0.6784169538        1.8237084892        2.3020613531
 C         -0.2577854768        1.3866522978        3.2197648243
 C         -1.5086924812        0.9734153944        2.7983209830
 C         -1.8169894370        1.0017239639        1.4427515196
 C         -0.8768401553        1.4455964258        0.5225304392
 H         -1.1250340559        1.4292583678       -0.5262199559
 N         -3.0949432799        0.6135930986        1.0006260139
 S         -3.2133307843       -0.3034106403       -0.4159973790
 O         -2.2731634116       -1.4010244162       -0.3715463786
 O         -3.1521942463        0.5803374200       -1.5509128410
 C         -4.8801173912       -0.9175132470       -0.2380547702
 C         -5.9307683003       -0.0828646120       -0.5695544843
 C         -7.2283814661       -0.5398454245       -0.4031510250
 C         -7.4534415706       -1.8168085678        0.0895257269
 C         -6.3895033861       -2.6439977933        0.4160835893
 C         -5.0891387082       -2.1919671082        0.2536262643
 H         -4.2305202521       -2.8015174100        0.4860201997
 H         -6.5668853964       -3.6373397551        0.7956888128
 H         -8.4642225785       -2.1706576915        0.2171321112
 H         -8.0578612273        0.0995579566       -0.6585239452
 H         -5.7056086170        0.8967824107       -0.9574331630
 H         -3.6381998497        0.1853918547        1.7393030282
 H         -2.2426865553        0.6302205011        3.5118733419
 H         -0.0113179876        1.3630700013        4.2705359350
 H          1.6635518920        2.1277476914        2.6263998502
 H          2.1655731778        2.9203288522        0.5265868586
 C          0.9035716037        3.1274441992       -1.1792905970
 C          0.4888137001        4.5440860004       -0.9205279160
 C          1.7256220038        4.2588482450       -1.7169839449
 H          1.7110456973        4.4437656817       -2.7806049416
 H          2.6842383358        4.4438244191       -1.2544978029
 H         -0.3791837704        4.9267575030       -1.4350474440
 H          0.6093502891        4.9225580866        0.0833476628
 H          0.3258111673        2.5545156720       -1.8933553393
