  62
        -98.93577665
 C         -2.5629943522       -1.2497481339        0.2393384146
 C         -2.6107927551       -0.2104916936       -0.7224099946
 C         -3.9542295511        0.2932507576       -1.0532459237
 C         -5.0318714816       -0.2421754503       -0.4532400673
 C         -6.4476572705        0.2085565638       -0.6641848345
 C         -6.8438782923        1.2869275279        0.3538349983
 C         -5.8300445244        2.4249146790        0.4735952293
 H         -6.2287521872        3.1411205950        1.1954356857
 H         -4.8999456029        2.0328269128        0.8918827141
 C         -5.5253977114        3.1457802052       -0.8470063760
 H         -6.3123919583        2.9374300074       -1.5727709643
 H         -5.5281712892        4.2227212310       -0.6659594510
 C         -4.1664991535        2.8016011727       -1.4601021328
 H         -3.3828823739        2.9188880408       -0.7068138303
 H         -3.9622295138        3.5209691717       -2.2576475096
 C         -4.0433543888        1.3984695307       -2.0676408461
 H         -4.8695884482        1.2227180746       -2.7595584071
 H         -3.1069510046        1.3637835622       -2.6321271096
 H         -6.9473736330        0.8163651054        1.3343861742
 H         -7.8160572877        1.6920193450        0.0672657769
 H         -7.1050566257       -0.6538118726       -0.5407568906
 H         -6.5543218699        0.5926807369       -1.6767098182
 O         -4.9464646622       -1.2368419280        0.4670564143
 C         -3.7168991555       -1.7440517219        0.8530922342
 O         -3.7808084231       -2.6185409501        1.7402856149
 O         -1.5976170494        0.2776962229       -1.2852740422
 C         -1.2455049776       -1.8427936540        0.7093479300
 C         -0.2520592346       -0.7390650046        0.9813799293
 C         -0.5707047165        0.2146821326        1.9448601851
 C          0.3005861356        1.2459270392        2.2363550588
 C          1.5136409276        1.3471529540        1.5782224608
 C          1.8449543234        0.3983019143        0.6217417401
 C          0.9684280346       -0.6415526543        0.3336602372
 H          1.2321617461       -1.3585169880       -0.4281966345
 N          3.0695947063        0.5029130189       -0.0613987232
 S          4.4356636349        0.8828680983        0.8551360055
 O          4.4447686554        0.1060920246        2.0749799024
 O          4.4951597600        2.3136034766        1.0218246503
 C          5.7407129726        0.3458854440       -0.2333992888
 C          6.1620205366        1.1938374800       -1.2400679176
 C          7.1594461189        0.7657302634       -2.1016829504
 C          7.7148862267       -0.4954449934       -1.9440792004
 C          7.2820839750       -1.3348648693       -0.9285413466
 C          6.2841194726       -0.9135690229       -0.0639458195
 H          5.9235442353       -1.5284641535        0.7451458049
 H          7.7179068965       -2.3134507864       -0.8067818746
 H          8.4922453028       -0.8253898227       -2.6150392126
 H          7.5006188874        1.4158973315       -2.8910363957
 H          5.7079911738        2.1678001762       -1.3187921910
 H          3.2381384395       -0.2866347424       -0.6694178888
 H          2.2057749183        2.1449698707        1.7955570335
 H          0.0352156102        1.9803737631        2.9826441456
 H         -1.5201254957        0.1392306004        2.4591443640
 H         -1.4805224295       -2.3207899521        1.6751595664
 C         -0.7001471384       -2.9417885253       -0.1908141282
 C         -1.6199669077       -3.7924771446       -1.0136938504
 C         -0.6918468023       -2.8274336286       -1.6847768890
 H          0.1545675405       -3.2265472713       -2.2249274470
 H         -1.1039086389       -1.9301904247       -2.1181112729
 H         -1.4097274879       -4.8488817815       -1.0882192825
 H         -2.6744392096       -3.5589196595       -0.9885141303
 H          0.1426354660       -3.4531613806        0.2651004115
