  62
        -98.93786935
 C         -1.7439736043       -0.5485121116        0.5413708598
 C         -3.0213663910       -0.5608280276        1.1440096625
 C         -4.1850937751       -0.3922829173        0.2516061740
 C         -3.9700468136       -0.2436020790       -1.0690528030
 C         -4.9844783932       -0.0184499744       -2.1586263373
 C         -5.5228419681        1.4212039439       -2.1786960148
 C         -5.8752051621        1.9951140807       -0.8088338886
 H         -4.9910693716        1.9660086515       -0.1692565631
 H         -6.1391822051        3.0469782630       -0.9474777645
 C         -7.0398231992        1.3115357863       -0.0963162190
 H         -7.9312366996        1.3757829527       -0.7243826910
 H         -7.2372638147        1.8772651002        0.8179497106
 C         -6.8216238713       -0.1529398695        0.2901146267
 H         -7.6140035738       -0.4246885002        0.9938046328
 H         -6.9364744390       -0.8071218272       -0.5699925321
 C         -5.4985871492       -0.4363083736        0.9946267316
 H         -5.3896465122        0.2501505128        1.8422504795
 H         -5.5498266985       -1.4368415556        1.4412865672
 H         -6.4012004434        1.4523242940       -2.8256071669
 H         -4.7560011860        2.0625177056       -2.6203656586
 H         -4.4752069150       -0.2111131656       -3.1054921960
 H         -5.7960548048       -0.7342636174       -2.0680168863
 O         -2.7170342938       -0.2402450814       -1.6070159938
 C         -1.5798917410       -0.3914841114       -0.8345264216
 O         -0.5138480177       -0.3698181478       -1.4756157880
 H          2.2106991069       -0.7351216299        1.5915270414
 C          1.8104235795        0.2496266059        1.4043783163
 C          0.4387614518        0.4281897961        1.2888050797
 C         -0.0398379222        1.7161120963        1.0684793356
 C          0.8268022873        2.7838919532        0.9283793080
 C          2.1948605886        2.5965172484        1.0214317801
 C          2.6826854506        1.3227603641        1.2712533853
 N          4.0823199274        1.1356919232        1.3638018862
 S          4.9027582174        1.1539268052       -0.0995030317
 O          6.2989097439        0.9705693586        0.2257911464
 O          4.5586940055        2.3598939419       -0.8059728056
 C          4.2873523886       -0.2854537925       -0.9532833085
 C          5.0305464267       -1.4499762674       -0.9290651063
 C          4.5013391981       -2.5938023831       -1.5037664463
 C          3.2354499458       -2.5595081158       -2.0707281902
 C          2.5000292782       -1.3843645299       -2.0831002742
 C          3.0305271474       -0.2334079693       -1.5215473589
 H          2.4730495029        0.6892274785       -1.5189912768
 H          1.5036436682       -1.3477180889       -2.4945230424
 H          2.8163658130       -3.4542548727       -2.5043475812
 H          5.0702772555       -3.5097815540       -1.5000128433
 H          6.0056504841       -1.4327840295       -0.4692335727
 H          4.3378230064        0.2944311444        1.8638336780
 H          2.8873600268        3.4116631949        0.8907221774
 H          0.4335752366        3.7722707308        0.7431603682
 H         -1.1073563087        1.8721266036        0.9935376519
 C         -0.5191728614       -0.7311563699        1.4153171873
 H         -0.8997620906       -0.7504963158        2.4482296643
 C          0.1374000206       -2.0646896164        1.1121447515
 C          0.7805468462       -2.8689220949        2.2016275557
 C         -0.5164196900       -3.3204238056        1.6024670725
 H         -0.5173726638       -4.1875581169        0.9595700885
 H         -1.4167794183       -3.2112955810        2.1895024725
 H          1.6726404206       -3.4312879972        1.9690558480
 H          0.7580975039       -2.4671556081        3.2036714085
 H          0.5887555074       -2.0870598684        0.1262320394
 O         -3.1913715005       -0.7000429315        2.3866046579
