  62
        -98.93672406
 C          1.8840903002        1.5210506014        0.0068717363
 C          1.7015806715        0.1397021513        0.2470906001
 C          2.9205415124       -0.6503457202        0.5104665301
 C          4.1207770718       -0.0430905485        0.5110111579
 C          5.5124405149       -0.5843883790        0.7631148969
 C          5.7805078686       -2.0873992391        0.7521154728
 C          5.6149272170       -2.7601089076       -0.6104241428
 H          6.4156750168       -2.4132721667       -1.2686452323
 H          5.7394046817       -3.8368578497       -0.4757132911
 C          4.2896799914       -2.4989080002       -1.3224255607
 H          4.2045843235       -1.4364105905       -1.5602834386
 H          4.3097585626       -3.0387260074       -2.2731791141
 C          3.0394516500       -2.9400405168       -0.5636284260
 H          3.1294408181       -3.9926302453       -0.2883793681
 H          2.1912423147       -2.8434902602       -1.2470928486
 C          2.7139570630       -2.1254520422        0.7003183299
 H          3.2766897077       -2.4838963325        1.5586428240
 H          1.6517925495       -2.2566313213        0.9264285748
 H          5.1692187977       -2.5850183700        1.4991902149
 H          6.8220560751       -2.2181405716        1.0584342422
 H          6.1567818605       -0.1009573062        0.0216804371
 H          5.8149319741       -0.1862675954        1.7381159556
 O          4.2435959303        1.3023730144        0.3076165465
 C          3.1478068363        2.1106123247        0.0628784304
 O          3.4245532954        3.3182379221       -0.0794138424
 O          0.5794243829       -0.4264582139        0.2513013388
 C          0.7106946725        2.4415208141       -0.2783609656
 C         -0.4349325468        2.1352145991        0.6563165898
 C         -0.2215898017        2.2430044640        2.0287387291
 C         -1.2374409425        1.9731482917        2.9240053159
 C         -2.4891223913        1.5938973688        2.4710310795
 C         -2.7171426119        1.4925122550        1.1038132338
 C         -1.6932643236        1.7689155488        0.2060861108
 H         -1.8932178696        1.6692821737       -0.8469812774
 N         -3.9955585062        1.1625554553        0.6285840580
 S         -4.3015436105        0.1563252035       -0.6676373089
 O         -3.6183071788        0.6350996381       -1.8417661060
 O         -5.7460299873        0.1148086963       -0.7453559832
 C         -3.7009528997       -1.4586114131       -0.2031966351
 C         -2.3423095885       -1.6973365002       -0.1566324404
 C         -1.9020464145       -2.9559334635        0.2234304397
 C         -2.8147366955       -3.9471798576        0.5470208866
 C         -4.1764989822       -3.6886113157        0.4984655228
 C         -4.6251737628       -2.4332322467        0.1228589780
 H         -5.6735832558       -2.1884641210        0.0667357082
 H         -4.8868714653       -4.4592640361        0.7515904887
 H         -2.4626107565       -4.9242795408        0.8387164006
 H         -0.8404304503       -3.1409133082        0.2653947163
 H         -1.6359145454       -0.9192096202       -0.3960069922
 H         -4.6806763458        1.0071583194        1.3535820935
 H         -3.2840378709        1.3823238823        3.1700862935
 H         -1.0548248160        2.0551282446        3.9850537745
 H          0.7586834543        2.5341063002        2.3826217433
 H          1.0764330348        3.4543684583       -0.0388857346
 C          0.2905590846        2.4645032798       -1.7407582228
 C          1.2758097747        2.2158817795       -2.8423487240
 C          0.1961160919        1.2159953450       -2.5629678560
 H         -0.6243852394        1.1227043934       -3.2600018060
 H          0.4698425085        0.2859988623       -2.0903927303
 H          1.2058404062        2.8175809523       -3.7361096235
 H          2.2897029559        1.9675850084       -2.5628702738
 H         -0.4561316409        3.2289282437       -1.9356652970
