  62
        -98.93808326
 C         -2.5387592034       -0.2705821572        0.0408326364
 C         -2.3521235699        0.7536020750        0.9946066819
 C         -2.1669088667        2.1240314705        0.4812979187
 C         -2.2054598910        2.3260150339       -0.8488733566
 C         -2.0356636366        3.6167368524       -1.6065478388
 C         -0.5693653868        4.0633258399       -1.7021865271
 C          0.2175622586        3.9672503472       -0.3980728907
 H          0.2292168017        2.9289281563       -0.0587855140
 H          1.2548432168        4.2345870900       -0.6182697970
 C         -0.2684086977        4.8812647435        0.7248772736
 H          0.4421992841        4.7809744642        1.5495114901
 H         -0.2347625109        5.9175680685        0.3803593709
 C         -1.6691955806        4.5977605638        1.2730497133
 H         -1.7632026267        5.1405413816        2.2182658347
 H         -2.4390906700        4.9896387628        0.6137425728
 C         -1.9443526402        3.1303048585        1.5840522211
 H         -2.8326202762        3.0663036333        2.2245052498
 H         -1.1225839020        2.7313707626        2.1915968537
 H         -0.0689064921        3.4262290972       -2.4353301234
 H         -0.5460028997        5.0908436769       -2.0704939996
 H         -2.4097267899        3.4346861332       -2.6166435713
 H         -2.6483775527        4.3948165428       -1.1608991897
 O         -2.3966338961        1.3054442699       -1.7339047416
 C         -2.5253895366       -0.0087198984       -1.3277360107
 O         -2.6340440481       -0.8293621951       -2.2598275117
 O         -2.3362510504        0.5362714212        2.2391802885
 C         -2.6397605869       -1.7095137656        0.5091232725
 C         -1.4491987133       -2.4933167800        0.0091933713
 C         -1.5264950911       -3.8072947040       -0.4334672281
 C         -0.3871935136       -4.4661695206       -0.8645974771
 C          0.8433986232       -3.8368363459       -0.8647604759
 C          0.9306849825       -2.5185592425       -0.4268652399
 C         -0.2080610399       -1.8697461768        0.0175272046
 H         -0.1284777240       -0.8522712039        0.3710948581
 N          2.1535340763       -1.8296728976       -0.4670384717
 S          2.3820716158       -0.4398335916        0.4540456436
 O          2.1145798877       -0.7104709882        1.8503945480
 O          1.6508796559        0.6475731047       -0.1449689924
 C          4.1319788661       -0.2007742924        0.2098500385
 C          5.0212449100       -0.7585441706        1.1092892355
 C          6.3812031616       -0.5971416812        0.8961735040
 C          6.8269449308        0.1139148496       -0.2079513718
 C          5.9228070552        0.6702643700       -1.1005202516
 C          4.5615770113        0.5123224628       -0.8929733187
 H          3.8205284131        0.9321037434       -1.5534271230
 H          6.2722903687        1.2261722935       -1.9554976893
 H          7.8855905667        0.2383117728       -0.3721268366
 H          7.0862111140       -1.0252202412        1.5903732103
 H          4.6283853319       -1.2923849212        1.9596977224
 H          2.9627737303       -2.4340559826       -0.4685960719
 H          1.7270374015       -4.3514435016       -1.2093271365
 H         -0.4604362840       -5.4871450756       -1.2074119524
 H         -2.4777191076       -4.3138761000       -0.4443058629
 H         -2.5758550511       -1.6643143509        1.6078482539
 C         -3.9708377708       -2.3175797207        0.1205895792
 C         -4.6072613163       -3.3646547857        0.9837971215
 C         -5.1829708804       -1.9823624192        0.9353505586
 H         -6.1213886937       -1.8285254966        0.4244021613
 H         -5.0400080067       -1.3368947995        1.7899881103
 H         -5.1557037881       -4.1624318116        0.5060947085
 H         -4.0822216694       -3.6615816721        1.8792429119
 H         -4.0938583394       -2.3910666049       -0.9539517954
