  62
        -98.94443807
 C         -1.9380021984       -0.8548645923        0.0450890982
 C         -2.4087805993        0.4698541106        0.2110500548
 C         -3.8241923547        0.5976479313        0.5827145513
 C         -4.5719721148       -0.5055506037        0.7667165439
 C         -6.0223591193       -0.5366119528        1.1662431315
 C         -6.9963201778       -0.3695376456       -0.0081618410
 C         -7.0731559173        1.0407814561       -0.5942507032
 H         -7.9424135726        1.0664936697       -1.2544318274
 H         -7.2525628176        1.7573203940        0.2078896528
 C         -5.8333542491        1.4623316796       -1.3953701886
 H         -5.2484043183        0.5770829441       -1.6555599889
 H         -6.1461616762        1.9256109242       -2.3339099343
 C         -4.9246908468        2.4612767962       -0.6786454369
 H         -5.4588760793        3.4025924509       -0.5309051035
 H         -4.0619909765        2.6613869052       -1.3194505065
 C         -4.4020084967        1.9771803455        0.6802680402
 H         -3.6016485944        2.6494913302        0.9994701156
 H         -5.1999343003        2.0055311398        1.4220571818
 H         -6.7201895424       -1.0760088083       -0.7942938286
 H         -7.9904452627       -0.6445710638        0.3516162552
 H         -6.1980377343       -1.5132016033        1.6224095172
 H         -6.2139428252        0.2351438404        1.9122214529
 O         -4.0716962452       -1.7619419038        0.6247217900
 C         -2.7552398108       -1.9673655290        0.2452476643
 O         -2.4337031950       -3.1677048507        0.1318425409
 H          1.5607723657        0.7187024076       -0.7804134239
 C          1.4294924465        0.4343831692        0.2494970365
 C          0.4397027749       -0.4613740734        0.6196582734
 C          0.3004307079       -0.7824987530        1.9683305883
 C          1.1164816023       -0.2052333497        2.9205106981
 C          2.0984455281        0.6965862320        2.5477479823
 C          2.2511428296        1.0191361484        1.2054298580
 N          3.2267265825        1.9459558142        0.8051471604
 S          4.1918521094        1.6551095654       -0.5266609649
 O          5.2784378693        2.6007250280       -0.3976313411
 O          3.4192538489        1.7335550121       -1.7392316536
 C          4.7983883655       -0.0031052057       -0.2773997365
 C          4.1707146977       -1.0640105335       -0.8973350697
 C          4.6154698958       -2.3502171924       -0.6339706361
 C          5.6724117355       -2.5520489430        0.2398164680
 C          6.2954522484       -1.4746150985        0.8516302628
 C          5.8532379502       -0.1872611538        0.5955540744
 H          6.3169299867        0.6777997888        1.0412806347
 H          7.1205551570       -1.6347190478        1.5267954571
 H          6.0137461502       -3.5550242712        0.4421840698
 H          4.1335478545       -3.1889214139       -1.1107840734
 H          3.3553954994       -0.8681619132       -1.5737660960
 H          3.7694272355        2.3328577565        1.5632148090
 H          2.7312681317        1.1571329955        3.2911164209
 H          0.9897408103       -0.4585259022        3.9622902971
 H         -0.4700992275       -1.4842521686        2.2583766651
 C         -0.4988728286       -1.1031370888       -0.3723836008
 H         -0.3548423213       -2.1924688040       -0.3264497554
 C         -0.2877713076       -0.6448311356       -1.7999083134
 C          0.7253852464       -1.3255542169       -2.6683461594
 C         -0.7376670967       -1.5308497436       -2.9209328718
 H         -1.1827379284       -1.0743454797       -3.7923581784
 H         -1.1742260926       -2.4828408526       -2.6549657987
 H          1.2912864426       -0.7266388257       -3.3669550738
 H          1.2759781571       -2.1488106367       -2.2382407661
 H         -0.4325049567        0.4225454978       -1.9246881787
 O         -1.6906502462        1.4922949102        0.0607964426
