  62
        -98.94227305
 C         -1.2471610681       -1.2415172561        0.0787366012
 C         -1.5833506731       -0.0933488792        0.8305902865
 C         -2.6492318760        0.7715651087        0.2937256953
 C         -3.2156803820        0.4421512676       -0.8819175057
 C         -4.3426659129        1.1455838907       -1.5882874327
 C         -5.7132294712        0.8634271226       -0.9455977447
 C         -5.7225690997        0.8366536100        0.5814581451
 H         -6.7030196787        0.4741435561        0.9013067531
 H         -4.9810252103        0.1160407057        0.9312685311
 C         -5.4810142736        2.1832261571        1.2592808315
 H         -6.2850238369        2.8701148773        0.9848003556
 H         -5.5355175887        2.0214248403        2.3388108710
 C         -4.1470231794        2.8594758880        0.9425735247
 H         -4.1519129464        3.2708213688       -0.0633607817
 H         -4.0409605733        3.7092601327        1.6237934422
 C         -2.9136275039        1.9852043903        1.1513617685
 H         -2.0215852751        2.6175110565        1.0476608464
 H         -2.9009425645        1.6271866586        2.1871433819
 H         -6.0491991376       -0.1161403163       -1.2937174776
 H         -6.4235057687        1.6103758759       -1.3034626602
 H         -4.1389822981        2.2119853574       -1.6309324959
 H         -4.3547891958        0.7706244791       -2.6141155289
 O         -2.8416845354       -0.6612477073       -1.5893991984
 C         -1.8382852811       -1.5088638212       -1.1547725405
 O         -1.5767934657       -2.4420431321       -1.9381310959
 H          0.7614341591        0.0888110511       -0.5786489551
 C          1.4029401726       -0.7479249838       -0.8053968612
 C          1.0796193405       -2.0095022972       -0.3256763014
 C          1.9049417501       -3.0751431940       -0.6624674100
 C          3.0131452859       -2.8722657688       -1.4673667065
 C          3.3382251200       -1.6099842326       -1.9304117193
 C          2.5211291347       -0.5364450720       -1.5943373982
 N          2.8030447989        0.7645210082       -2.0360937371
 S          2.4641671924        2.0697872033       -1.0462435391
 O          1.0452481910        2.3224665811       -1.0074830757
 O          3.2772803689        3.1393641612       -1.5864096653
 C          3.0880377315        1.6008482697        0.5581848389
 C          2.2369943055        1.2542401035        1.5870049950
 C          2.7829240445        0.8509535549        2.7965609983
 C          4.1580554450        0.8020603579        2.9578131693
 C          5.0003315374        1.1614224127        1.9159789507
 C          4.4622284871        1.5614393686        0.7047981862
 H          5.0815161326        1.8614324696       -0.1248923627
 H          6.0702074715        1.1282716303        2.0439398561
 H          4.5743432763        0.4850178309        3.9009686491
 H          2.1192037177        0.5740003728        3.6001966520
 H          1.1676723464        1.2926913241        1.4473345556
 H          3.6822890488        0.8732016794       -2.5192005163
 H          4.2059359036       -1.4554914010       -2.5529681243
 H          3.6397313653       -3.7104824431       -1.7314799948
 H          1.6762724762       -4.0647804343       -0.3025738124
 C         -0.1279244839       -2.1384147710        0.5724080360
 H          0.1524651816       -1.7343534860        1.5578359009
 C         -0.6026878520       -3.5649797159        0.7487763065
 C         -0.0024118803       -4.4352395339        1.8113666577
 C         -1.3988842650       -3.9161412336        1.9689642930
 H         -2.2238682625       -4.6047674433        1.8653903258
 H         -1.5754186334       -3.1302107322        2.6889258984
 H          0.1304721889       -5.4860038845        1.6022908232
 H          0.7687602891       -4.0062671807        2.4330970028
 H         -0.8955062861       -4.0245306667       -0.1881415558
 O         -1.0138674549        0.2030351728        1.9174035447
