  62
        -98.94315788
 C         -1.2399887762       -1.0976106492       -0.0375132444
 C         -1.7630885151       -0.0721842456        0.7871150566
 C         -2.6610528219        0.8874349896        0.1312404707
 C         -2.9282201462        0.7470352853       -1.1800037370
 C         -3.8688087904        1.6187444375       -1.9597271674
 C         -5.2947993999        1.0503838038       -1.9442424713
 C         -5.7966316415        0.6776217821       -0.5491256217
 H         -6.8218440136        0.3173544002       -0.6585911059
 H         -5.2025927052       -0.1561225302       -0.1679107725
 C         -5.7645060744        1.8287399594        0.4660541807
 H         -6.7069730895        1.8350854689        1.0176791739
 H         -5.6905105859        2.7824824348       -0.0578388764
 C         -4.6426082735        1.7296441153        1.5012231715
 H         -4.6588612659        0.7396546708        1.9636488942
 H         -4.8414615054        2.4619329661        2.2881895323
 C         -3.2256499322        1.9939992954        0.9768325920
 H         -3.2054876437        2.9420803598        0.4354823622
 H         -2.5620074059        2.0748782887        1.8424310138
 H         -5.9649501930        1.7882811263       -2.3892260120
 H         -5.3165661936        0.1531322848       -2.5672618240
 H         -3.8625603617        2.6216765947       -1.5369223563
 H         -3.5183337249        1.6676752325       -2.9922515432
 O         -2.3989342866       -0.2439163066       -1.9431564853
 C         -1.5404862084       -1.1903647888       -1.3965329833
 O         -1.1186651018       -2.0303982161       -2.2134254306
 H          0.8243136680       -0.0333398603       -0.7750665737
 C          1.5231783305       -0.8487734441       -0.6347904128
 C          1.1057135665       -2.0017349409        0.0135168501
 C          2.0320384276       -3.0261000107        0.1847547330
 C          3.3306230865       -2.8933180437       -0.2744699079
 C          3.7390995919       -1.7393382187       -0.9207532380
 C          2.8196638886       -0.7197994263       -1.1100308973
 N          3.2365925590        0.4809167726       -1.7428476403
 S          4.0060213545        1.5319787622       -0.6844052426
 O          4.1523708623        2.7820377391       -1.3950714457
 O          5.2197984166        0.9051119184       -0.2289288064
 C          2.8582342820        1.7148011564        0.6676444581
 C          2.9020268270        0.8106091459        1.7099050846
 C          1.9360414443        0.8850247447        2.7000463421
 C          0.9433179861        1.8496800063        2.6288512049
 C          0.9127209019        2.7491403884        1.5744075195
 C          1.8741015317        2.6790146752        0.5792949530
 H          1.8833873163        3.3590162197       -0.2583045803
 H          0.1351455245        3.4944870513        1.5190447924
 H          0.1805318923        1.8877085148        3.3896493972
 H          1.9490800852        0.1820063382        3.5171190718
 H          3.6867219152        0.0714539801        1.7270712308
 H          2.4693139515        0.9752642955       -2.1779297143
 H          4.7500615473       -1.6077347345       -1.2696625998
 H          4.0351051100       -3.6972545716       -0.1260540434
 H          1.7321756643       -3.9318551011        0.6867711920
 C         -0.2904527189       -2.1004775807        0.5820122716
 H         -0.2307128582       -1.8186310993        1.6450711681
 C         -0.8507727311       -3.5075312718        0.4854938900
 C         -0.6932072010       -4.4757576015        1.6187298238
 C         -2.0336604211       -3.8722125072        1.3307337334
 H         -2.8042247403       -4.4941350784        0.9005493042
 H         -2.4091247004       -3.1175700278        2.0066860092
 H         -0.1725581889       -4.1377552735        2.5021294632
 H         -0.5421638968       -5.5192714490        1.3865605225
 H         -0.8239610062       -3.8959837215       -0.5261806654
 O         -1.4884030534        0.0358335285        2.0106901658
