  62
        -98.93314450
 C         -1.8532602646       -0.5174715721        0.6401168798
 C         -2.3783544834        0.8079571789        0.6364341632
 C         -3.8343920707        0.9548977480        0.5348106463
 C         -4.5985609589       -0.1489003307        0.4657098873
 C         -6.0914781810       -0.1576542230        0.3165634705
 C         -6.5013764976       -0.1877878685       -1.1625414448
 C         -5.7867367945        0.8544347794       -2.0227743314
 H         -6.1768286088        0.7602016946       -3.0385507953
 H         -4.7221877536        0.6128742066       -2.0644057558
 C         -5.9586686839        2.3017630991       -1.5406576174
 H         -6.8091693469        2.3672774098       -0.8610537614
 H         -6.1837390131        2.9333213829       -2.4026685619
 C         -4.7221317859        2.8961287445       -0.8636185361
 H         -4.8754437519        3.9738602287       -0.7626251531
 H         -3.8478834961        2.7484783336       -1.5025800037
 C         -4.3971319929        2.3483321264        0.5317463794
 H         -5.2851323845        2.4048152840        1.1648491957
 H         -3.6224386219        2.9857663625        0.9673718549
 H         -7.5804832825       -0.0358093714       -1.2247428196
 H         -6.2741438619       -1.1778443708       -1.5647278992
 H         -6.5041662329        0.7249754437        0.8016008029
 H         -6.4816986272       -1.0489570237        0.8109355989
 O         -4.0749310388       -1.3968695814        0.4765090934
 C         -2.7040155557       -1.6226358038        0.5506454426
 O         -2.4224160195       -2.8355960416        0.5154437832
 O         -1.6512057737        1.8345222889        0.7189626997
 C         -0.3446695052       -0.5954511862        0.7770285976
 C          0.4296625660       -1.1435665894       -0.4015900220
 C         -0.0869669445       -2.0232477681       -1.3423320174
 C          0.7108793732       -2.4979243319       -2.3703786732
 C          2.0363581815       -2.1216152704       -2.4731369009
 C          2.5657494019       -1.2365425977       -1.5396660582
 C          1.7560279270       -0.7425084000       -0.5298692418
 H          2.1693451394       -0.0409515422        0.1779889430
 N          3.8985491963       -0.8155326417       -1.6272692664
 S          4.7980299834       -0.4952794962       -0.2543073610
 O          6.1723255940       -0.6066253429       -0.6929734735
 O          4.4101404405       -1.3383799104        0.8515025443
 C          4.4426011070        1.2106554976        0.1089553163
 C          4.0107117859        1.5692752418        1.3702275935
 C          3.7481006893        2.9039467485        1.6360048589
 C          3.9245249170        3.8523682752        0.6405172021
 C          4.3637631277        3.4769687131       -0.6202613644
 C          4.6270140334        2.1442052402       -0.8917557411
 H          4.9724617140        1.8145871310       -1.8573080142
 H          4.4997135383        4.2186774806       -1.3907714647
 H          3.7173186091        4.8899296188        0.8499522894
 H          3.4043517135        3.1967671896        2.6152468882
 H          3.8830632982        0.7992817232        2.1153733822
 H          4.4446246330       -1.2652250820       -2.3469550187
 H          2.6574692234       -2.5054909071       -3.2680549093
 H          0.2927221432       -3.1822520029       -3.0933383609
 H         -1.1079168942       -2.3566099554       -1.2619235100
 H         -0.0571069307        0.4663486560        0.8585364540
 C          0.1975965260       -1.2522690390        2.0481003315
 C         -0.6423916982       -1.4850254688        3.2651621739
 C         -0.1238301469       -2.6501223574        2.4765258023
 H          0.6749057514       -3.2433869281        2.8981747112
 H         -0.8276544681       -3.2101593260        1.8837129696
 H         -0.2161599590       -1.2772309673        4.2355324101
 H         -1.6981681014       -1.2649246088        3.1931952411
 H          1.2222002043       -0.9424464735        2.2352405925
