  62
        -98.93165590
 C         -2.6497636712       -0.9325933055       -0.0852719889
 C         -2.4012693205        0.0870373874       -1.0372153739
 C         -2.8647246143        1.4431930905       -0.6725363606
 C         -3.4728250965        1.6501171375        0.5064082711
 C         -4.0643008440        2.9241696017        1.0577637662
 C         -3.2727840781        4.2232659542        0.8595679512
 C         -1.7455938225        4.0642863571        0.8831672081
 H         -1.3239680860        4.7860110253        1.5853887474
 H         -1.4730106345        3.0679927708        1.2363789421
 C         -1.0998327197        4.3039430508       -0.4831909397
 H         -1.5691130049        5.1746843088       -0.9475957127
 H         -0.0425447170        4.5362058540       -0.3361363528
 C         -1.1637975072        3.1216836806       -1.4493747000
 H         -0.7702459384        3.4539016033       -2.4139118142
 H         -0.5024558988        2.3247219817       -1.0968512173
 C         -2.5629410159        2.5233200456       -1.6714756183
 H         -3.3265931722        3.2982173079       -1.6666258519
 H         -2.5662679227        2.0362146067       -2.6507272376
 H         -3.5801147942        4.9029911183        1.6561674254
 H         -3.5654325171        4.6885135808       -0.0806863904
 H         -5.0634540226        3.0454756444        0.6287962609
 H         -4.1944523032        2.7342474930        2.1259195247
 O         -3.6822538774        0.6393739530        1.3986478335
 C         -3.2692577147       -0.6523127910        1.1344254478
 O         -3.5192583938       -1.4649721887        2.0486363853
 H         -0.0362947838       -0.7787187926       -0.1075108765
 C          0.0954393388       -1.6893734384        0.4574943139
 C         -0.9283945265       -2.6237962767        0.5063546394
 C         -0.7408327183       -3.7834631737        1.2496287836
 C          0.4527907568       -4.0068892317        1.9124682985
 C          1.4792933561       -3.0830474093        1.8433860637
 C          1.2942865978       -1.9094750704        1.1195348426
 N          2.2992541738       -0.9307859265        1.0761544110
 S          2.4063565934        0.0610967902       -0.2871997225
 O          1.4499873651        1.1293772513       -0.1554826998
 O          2.3385302723       -0.7434393115       -1.4855193768
 C          4.0571589766        0.7015022311       -0.0770733968
 C          5.1130767087        0.0553349869       -0.6920104784
 C          6.3983132076        0.5371062402       -0.4997104904
 C          6.6053113183        1.6494651408        0.3022885527
 C          5.5356810015        2.2885994488        0.9115376874
 C          4.2479497254        1.8122676982        0.7225050358
 H          3.3848838660        2.2802510679        1.1669098709
 H          5.6995785690        3.1553348663        1.5312865844
 H          7.6062422944        2.0227926377        0.4505009366
 H          7.2310396054        0.0446759710       -0.9754159322
 H          4.9024454235       -0.7987620637       -1.3154928664
 H          3.2031219876       -1.2742058463        1.3704133263
 H          2.4122032796       -3.2579599804        2.3571380970
 H          0.5875744313       -4.9117914179        2.4852196431
 H         -1.5434518979       -4.5031891410        1.3162423293
 C         -2.2150537046       -2.3812906857       -0.2427962771
 H         -2.9968015544       -2.9810379220        0.2534256872
 C         -2.1356013988       -2.8535612226       -1.6867322023
 C         -0.8524691382       -2.9474366868       -2.4501382484
 C         -1.5550275068       -4.1971799469       -2.0174104669
 H         -2.0463955297       -4.7976290688       -2.7679645424
 H         -1.1126817796       -4.7651255128       -1.2132331642
 H         -0.8725504185       -2.6671704025       -3.4923120828
 H          0.0623952422       -2.6599849437       -1.9533932545
 H         -3.0073088436       -2.5472461858       -2.2558110258
 O         -1.8504925010       -0.0951282657       -2.1524857034
