  62
        -98.93899086
 C          1.1310650079        1.2483922245       -0.2613559564
 C          2.1388463698        1.1275545900        0.7308573475
 C          3.0106150722       -0.0499459219        0.6400760670
 C          2.8058190950       -0.9496677332       -0.3379710187
 C          3.5826772583       -2.2188051471       -0.5708474743
 C          5.0660918107       -2.0447533050       -0.9511839282
 C          6.0357197228       -2.1125452556        0.2353175715
 H          5.5664215086       -2.6764778116        1.0423766228
 H          6.9207919621       -2.6764817962       -0.0662530426
 C          6.5278760881       -0.7655119380        0.7732597540
 H          6.9933565426       -0.9437157337        1.7451339503
 H          7.3007447897       -0.3758665501        0.1066263929
 C          5.4644712323        0.3224384290        0.9257805151
 H          5.2138300975        0.7313513000       -0.0560132064
 H          5.8982457907        1.1441798843        1.4991413869
 C          4.1595172815       -0.1421002600        1.6015554521
 H          4.2635759587       -1.1571990771        1.9815235936
 H          3.9205199179        0.5169299506        2.4385785113
 H          5.3136364387       -2.8552970197       -1.6384521687
 H          5.1951916794       -1.1099443463       -1.4959728787
 H          3.5135774466       -2.8451996556        0.3215511637
 H          3.0674315524       -2.7303695129       -1.3861792854
 O          1.8034061206       -0.8185682407       -1.2460531484
 C          0.9482883116        0.2712963743       -1.2404792163
 O          0.0960219515        0.2345397113       -2.1501935938
 H         -1.7921712699        1.1279037375       -1.3493417791
 C         -2.0270451536        1.4351469772       -0.3416865892
 C         -1.0889945630        2.1490747667        0.3908803198
 C         -1.3956547943        2.4964625445        1.7017839402
 C         -2.6110759448        2.1427662082        2.2623672745
 C         -3.5416236672        1.4259708032        1.5306577812
 C         -3.2362544692        1.0631677281        0.2255238400
 N         -4.1559772574        0.2777561877       -0.5099907567
 S         -4.2981212725       -1.3035867741        0.0244713787
 O         -5.0954967881       -1.9864402217       -0.9683550623
 O         -4.8265188644       -1.2867688747        1.3649915698
 C         -2.6410620777       -1.9665857135        0.0367578166
 C         -2.2347893366       -2.7666150911       -1.0115981858
 C         -0.9436583044       -3.2673820151       -1.0125135282
 C         -0.0798035233       -2.9467361613        0.0222063934
 C         -0.4950703542       -2.1237565529        1.0570764203
 C         -1.7897226576       -1.6310460258        1.0708895078
 H         -2.1468972749       -1.0012329233        1.8695635642
 H          0.1869555903       -1.8573781919        1.8498761320
 H          0.9253937921       -3.3367924248        0.0210465639
 H         -0.6121163481       -3.8988762794       -1.8210279558
 H         -2.9388152687       -2.9909894407       -1.7969863532
 H         -3.9418193313        0.2608346085       -1.4984289614
 H         -4.4813252417        1.1160771426        1.9577744537
 H         -2.8346894511        2.4233182428        3.2805000654
 H         -0.6636505138        3.0338126540        2.2872533720
 C          0.2562977513        2.4908923022       -0.1997839699
 H          0.7672977614        3.1639842877        0.5013850855
 C          0.1318133069        3.1953656986       -1.5359305607
 C         -0.3133571088        4.6257992174       -1.5625694014
 C          1.1076275810        4.2766737189       -1.8863418909
 H          1.4402437742        4.3580463315       -2.9103510141
 H          1.8703122372        4.5175469204       -1.1601698190
 H         -0.9593960098        4.9498301916       -2.3639727278
 H         -0.5146224443        5.1034649280       -0.6156243592
 H         -0.1975113528        2.5499727383       -2.3396349049
 O          2.3047663934        1.9721974565        1.6504135373
