  62
        -98.93899396
 C         -2.3667434235       -1.1412704169       -0.0777454861
 C         -2.9335441000       -0.2024281727        0.8142159782
 C         -3.3808858629        1.0754665315        0.2354828169
 C         -3.2038172557        1.2846505028       -1.0822040848
 C         -3.5311530364        2.5436779627       -1.8341700070
 C         -2.4422675182        3.6254106942       -1.6600420836
 C         -1.7128654026        3.6082453580       -0.3154386314
 H         -0.8285179309        4.2460304443       -0.4038595672
 H         -1.3395595682        2.5991037457       -0.1230204949
 C         -2.5271689304        4.1058953036        0.8803246343
 H         -2.6187081404        5.1928716910        0.8084132714
 H         -1.9597581912        3.8809559782        1.7872967354
 C         -3.9370111474        3.5355323573        1.0193713627
 H         -4.5413647352        3.8515348271        0.1730570153
 H         -4.3844170946        3.9853585370        1.9108474024
 C         -4.0282213243        2.0217359124        1.2151652207
 H         -5.0891583823        1.7491756978        1.2756245893
 H         -3.5946579100        1.7634450451        2.1873769634
 H         -2.8888410023        4.6076453336       -1.8202730287
 H         -1.6869753821        3.4659489746       -2.4323589886
 H         -4.5060232550        2.9049907416       -1.5170297533
 H         -3.5969915946        2.2809885888       -2.8915726725
 O         -2.6246388227        0.3679941245       -1.9021063182
 C         -2.1712046421       -0.8508419536       -1.4281745363
 O         -1.6366677440       -1.5703126644       -2.2921797038
 O         -3.0466677671       -0.4170959570        2.0539877920
 C         -1.8378628060       -2.4523028465        0.4829112251
 C         -0.3315347810       -2.3909188957        0.4248628042
 C          0.4617733084       -3.2568835290       -0.3143668799
 C          1.8329492786       -3.0693471350       -0.3753629731
 C          2.4384903963       -2.0190053361        0.2906775626
 C          1.6525238527       -1.1542247898        1.0410342356
 C          0.2857135506       -1.3513504733        1.1115202868
 H         -0.3244206680       -0.6674369615        1.6896433943
 N          2.2595748239       -0.0480120230        1.6905260084
 S          2.5782156508        1.2203168900        0.6212219070
 O          2.7139200446        2.4010978657        1.4471599023
 O          1.5874148648        1.2841239640       -0.4302686615
 C          4.1650969278        0.7755790899       -0.0473843060
 C          4.2659841564        0.3629659161       -1.3610865746
 C          5.5088982210       -0.0074529556       -1.8513240853
 C          6.6200412782        0.0393507580       -1.0230012640
 C          6.5011136198        0.4574145515        0.2943575756
 C          5.2621251166        0.8297865538        0.7904560001
 H          5.1220816911        1.1660247779        1.8041979713
 H          7.3675410971        0.4921623660        0.9349229320
 H          7.5847321888       -0.2522737148       -1.4072319087
 H          5.6028007500       -0.3334667048       -2.8747374873
 H          3.3722765349        0.3358105580       -1.9644538162
 H          1.6854384123        0.3146816499        2.4406576539
 H          3.5038800382       -1.8639178456        0.2376978201
 H          2.4368764479       -3.7463769800       -0.9598272795
 H          0.0042628577       -4.0670435215       -0.8577520956
 H         -2.1384479545       -2.4590959794        1.5407434622
 C         -2.4420075157       -3.6541274286       -0.2067935978
 C         -2.4317647672       -4.9852533098        0.4820736317
 C         -3.7176828778       -4.2324978064        0.3254580437
 H         -4.4495376404       -4.5985905811       -0.3786555793
 H         -4.1490642484       -3.7672153546        1.1998566637
 H         -2.2821264354       -5.8727806633       -0.1133914096
 H         -1.9897468749       -5.0337552335        1.4657004212
 H         -2.3153771007       -3.6311704116       -1.2824333816
