  62
        -98.93985787
 C          2.5719057506        0.0671024181       -0.4796854206
 C          2.2252988020        0.7190304659        0.7269911193
 C          1.8091281260        2.1274295805        0.6109766947
 C          1.7215635525        2.6914337823       -0.6058267929
 C          1.3365782309        4.1052703254       -0.9651533656
 C          0.1626178947        4.7378723629       -0.2072105214
 C         -0.9508798905        3.7644967259        0.2082557596
 H         -1.9124291688        4.1633096366       -0.1220774064
 H         -0.8209808126        2.7956560574       -0.2804211944
 C         -1.0218005139        3.5593290834        1.7230827639
 H         -0.9042464868        4.5280633020        2.2153693503
 H         -2.0121816173        3.1742237858        1.9770934450
 C         -0.0045336911        2.5728366337        2.2946201101
 H         -0.0800387745        2.6052294674        3.3848028700
 H         -0.2726783759        1.5594039100        1.9854744667
 C          1.4594293394        2.8193683448        1.8973620384
 H          2.0925622076        2.3633547229        2.6638400477
 H          1.6814732666        3.8836172799        1.8510383214
 H          0.5355595927        5.2455121490        0.6814801223
 H         -0.2533567223        5.5080098106       -0.8591137323
 H          1.1056397109        4.0700321338       -2.0326783485
 H          2.2213667238        4.7382344654       -0.8474673945
 O          2.0333198655        2.0134978733       -1.7477297432
 C          2.4577066094        0.6983306216       -1.7159401311
 O          2.7062135892        0.2087832824       -2.8386018710
 O          2.2803792069        0.1606495871        1.8544940434
 C          2.9833820507       -1.3937600501       -0.4697839290
 C          1.8467555234       -2.2403749327        0.0536914291
 C          2.0289290108       -3.3405716213        0.8821069422
 C          0.9385663223       -4.0689117692        1.3263412272
 C         -0.3488490528       -3.7097428880        0.9713566432
 C         -0.5404306248       -2.6178765441        0.1328198190
 C          0.5546358272       -1.9100773327       -0.3325532415
 H          0.3934258901       -1.0654843036       -0.9866917959
 N         -1.8317659752       -2.2135113599       -0.2664376976
 S         -2.1403144642       -0.5510613370       -0.1432944768
 O         -1.5753023012        0.1274382383       -1.2827661731
 O         -1.7329905054       -0.0818968180        1.1604480300
 C         -3.9190623458       -0.5455239951       -0.2696281368
 C         -4.6847482655       -0.4118742626        0.8728010949
 C         -6.0661919075       -0.4416293297        0.7608221716
 C         -6.6543190239       -0.6075219189       -0.4839063882
 C         -5.8721615525       -0.7394899151       -1.6219877374
 C         -4.4907404803       -0.7087551465       -1.5171455121
 H         -3.8414096370       -0.7976195390       -2.3726042104
 H         -6.3325122777       -0.8652604480       -2.5886504967
 H         -7.7292359286       -0.6314035466       -0.5684865841
 H         -6.6765122108       -0.3356196083        1.6431007630
 H         -4.1820134720       -0.2786397624        1.8173216552
 H         -2.5533738529       -2.7288100389        0.2225885741
 H         -1.1982394723       -4.2659345581        1.3386787839
 H          1.0934335284       -4.9195340152        1.9727551516
 H          3.0237392768       -3.6221857600        1.1866709249
 H          3.1483744800       -1.6667919196       -1.5235180112
 C          4.2781459189       -1.5842002733        0.2925816826
 C          5.2364064848       -2.6669278307       -0.1012172899
 C          5.5694489211       -1.2333326942       -0.3815525671
 H          6.3426355712       -0.7564902130        0.2016602635
 H          5.5138893034       -0.8833185847       -1.4024081288
 H          5.7870060147       -3.1755159511        0.6757678257
 H          4.9662207479       -3.2945289790       -0.9370687263
 H          4.1792121087       -1.3404659432        1.3439510458
