  62
        -98.94151504
 C         -2.5679876183       -0.0680778180        0.1016379721
 C         -2.5359716968        1.0793280950        0.9322449525
 C         -2.1199801676        2.3321293106        0.2954808412
 C         -1.7822741346        2.3351154913       -1.0064956678
 C         -1.3121618952        3.5249334706       -1.7976491321
 C          0.1899047403        3.7993792113       -1.6400433631
 C          0.5964108170        4.4267776354       -0.3058105879
 H          1.6176883042        4.7946676246       -0.4224952222
 H         -0.0405233165        5.2874781510       -0.0969259707
 C          0.5607820966        3.4555248750        0.8825003032
 H          0.5692925892        2.4260588532        0.5145230493
 H          1.4680645041        3.5757132621        1.4805210290
 C         -0.6261661414        3.6432534662        1.8282067742
 H         -0.5468710561        4.6126213836        2.3267381977
 H         -0.5725786445        2.8643187609        2.5938198915
 C         -2.0018749233        3.5546445161        1.1551646998
 H         -2.7602165128        3.4835017764        1.9393278629
 H         -2.1898832493        4.4519644926        0.5656417915
 H          0.7298473809        2.8582165041       -1.7725289544
 H          0.4864481858        4.4768597055       -2.4443298689
 H         -1.5152707074        3.3012751686       -2.8470717015
 H         -1.8814285883        4.4100314158       -1.5118225730
 O         -1.8424669888        1.2195407781       -1.7772479466
 C         -2.1796149101       -0.0137043903       -1.2389982613
 O         -2.1122543307       -0.9520823094       -2.0554041317
 O         -2.8327504203        1.0532188427        2.1589078378
 C         -2.8496481526       -1.4068069144        0.7617326271
 C         -1.7337305880       -2.3660721178        0.4240504918
 C         -1.9205409992       -3.6843012171        0.0346988125
 C         -0.8291364850       -4.4865930568       -0.2589551957
 C          0.4586614327       -3.9902804272       -0.1994692152
 C          0.6550645848       -2.6645546630        0.1786169364
 C         -0.4327257634       -1.8849703277        0.5232543284
 H         -0.2680499960       -0.8666309093        0.8471634977
 N          1.9439081315       -2.1018364421        0.1657732481
 S          2.1911677306       -0.4694673349        0.4448526283
 O          1.9700501470       -0.1352350192        1.8372960509
 O          1.4450398143        0.2863397026       -0.5285512588
 C          3.9336259404       -0.3781213531        0.0815105947
 C          4.3283343796       -0.3290932236       -1.2418729996
 C          5.6817332963       -0.2945687605       -1.5373812490
 C          6.6135804921       -0.3118900978       -0.5099229120
 C          6.2028977364       -0.3590319157        0.8136265696
 C          4.8503043243       -0.3934068747        1.1152774513
 H          4.4832476744       -0.4210050495        2.1286339520
 H          6.9292128764       -0.3691080532        1.6102463832
 H          7.6663191717       -0.2855625677       -0.7428342718
 H          6.0039058128       -0.2547650493       -2.5654319773
 H          3.5666722587       -0.3111148168       -2.0044831390
 H          2.6801714094       -2.6958981347        0.5151940845
 H          1.3046306095       -4.6086749676       -0.4548906129
 H         -0.9885835276       -5.5121852933       -0.5558559198
 H         -2.9178222404       -4.0825806907       -0.0557261842
 H         -2.7841802686       -1.1890889928        1.8427651535
 C         -4.2413292955       -1.9720751041        0.5226036347
 C         -5.3668726837       -1.0946967905        0.0644124017
 C         -4.8120685109       -2.1410161528       -0.8524109435
 H         -5.4139315097       -3.0155014910       -1.0523928514
 H         -4.2016094173       -1.8255542806       -1.6833599821
 H         -6.3449934526       -1.2485603817        0.4952083139
 H         -5.1386125143       -0.0596306500       -0.1462916976
 H         -4.5003587281       -2.7336867944        1.2519472164
