  62
        -98.94018834
 C          2.0645982704        1.4599108525        0.5156140398
 C          2.0494378900        0.2841371729        1.3098911230
 C          3.0837695892       -0.7149769496        1.0199028310
 C          3.9787011315       -0.4661101223        0.0468055055
 C          5.0405096729       -1.4246180809       -0.4067974242
 C          4.5328156010       -2.3075764249       -1.5559650772
 C          3.1707405825       -2.9497969218       -1.2905360244
 H          2.4103644041       -2.1668808417       -1.2387611815
 H          2.9333562343       -3.5719092924       -2.1561284205
 C          3.1082458040       -3.8019739951       -0.0152058077
 H          4.1176089336       -4.0603031971        0.3072523314
 H          2.5942552781       -4.7379109939       -0.2440832545
 C          2.3559026042       -3.1496937031        1.1462726952
 H          1.3843469010       -2.7908675566        0.7987375949
 H          2.1765379505       -3.9138968273        1.9071506869
 C          3.0742300014       -1.9800907561        1.8303487304
 H          2.5282734013       -1.7440365798        2.7483898184
 H          4.0902476886       -2.2742778094        2.1009942414
 H          4.4509697409       -1.6914787021       -2.4544486946
 H          5.2741953128       -3.0861874009       -1.7451758262
 H          5.3478977440       -2.0437359578        0.4337698889
 H          5.8997497511       -0.8489718548       -0.7550786792
 O          3.9788728183        0.6794446977       -0.6778895181
 C          3.0107990772        1.6610089973       -0.4900725680
 O          3.1244587703        2.6267145229       -1.2658692557
 O          1.2035124060        0.0843763221        2.2228579525
 C          0.9562848786        2.4617703240        0.7894578331
 C         -0.2579445201        2.0662345716       -0.0115744245
 C         -0.1913113221        1.9343543267       -1.3957653294
 C         -1.3016719175        1.5313382509       -2.1144439503
 C         -2.4914658497        1.2363819430       -1.4706975365
 C         -2.5609886556        1.3429677104       -0.0882948479
 C         -1.4487029657        1.7638171365        0.6306969434
 H         -1.5041107589        1.8359985068        1.7081263370
 N         -3.7574215482        1.0241987011        0.5760782552
 S         -4.5541447570       -0.3847962728        0.1477554808
 O         -5.2479465020       -0.1832947618       -1.0994200659
 O         -5.3804481677       -0.7074114855        1.2885474542
 C         -3.2718478518       -1.6070723550       -0.0584870097
 C         -2.9506723010       -2.0663617777       -1.3194432820
 C         -1.9275060998       -2.9911327101       -1.4543400267
 C         -1.2478389114       -3.4384472866       -0.3322140918
 C         -1.5842901256       -2.9694531434        0.9286570573
 C         -2.6032928558       -2.0421215527        1.0686926832
 H         -2.8928859696       -1.6627109128        2.0354605308
 H         -1.0527171474       -3.3156419355        1.8006606274
 H         -0.4515402694       -4.1584752352       -0.4392566965
 H         -1.6624896174       -3.3587176643       -2.4326294458
 H         -3.5086860873       -1.7008108818       -2.1657800743
 H         -3.7006428945        1.1107288702        1.5803812709
 H         -3.3654968800        0.9246213100       -2.0185916836
 H         -1.2407822840        1.4418440367       -3.1885100151
 H          0.7415492815        2.1487186214       -1.8962375164
 H          0.7081046025        2.3198967934        1.8533997990
 C          1.3666779673        3.9150576174        0.6120330016
 C          0.7965934929        4.8198348190       -0.4349653203
 C          0.4104870785        5.0046686370        0.9998286932
 H          0.7882817262        5.8619739793        1.5359493577
 H         -0.5872946084        4.7077668842        1.2876174884
 H          1.4640815783        5.5344696435       -0.8916880936
 H          0.0569237093        4.4231296334       -1.1121837542
 H          2.4100294023        4.0755125189        0.8615438859
