  62
        -98.94041482
 C         -2.5585215704       -0.0376464208        0.4706679859
 C         -2.1659444107        0.5707936518       -0.7432120475
 C         -1.7885398429        1.9948369223       -0.6769991842
 C         -1.8073740467        2.6276757847        0.5109459835
 C         -1.5093123807        4.0641820682        0.8904005900
 C         -0.9056017396        5.0291423346       -0.1250159282
 C          0.5552682840        4.7449949348       -0.4770254870
 H          0.8400628030        5.3864565394       -1.3137313808
 H          1.1754824644        5.0186232902        0.3802211693
 C          0.8823731170        3.2960462057       -0.8302477646
 H          1.9602919004        3.2232386799       -1.0034020457
 H          0.6624838034        2.6398183211        0.0153580264
 C          0.1860628591        2.7449018638       -2.0721395065
 H          0.4234534037        3.3689977538       -2.9369498213
 H          0.5964708378        1.7467928157       -2.2495320736
 C         -1.3411004431        2.6114628777       -1.9712147289
 H         -1.8319835201        3.5679389605       -2.1369934374
 H         -1.6701097813        1.9299758757       -2.7618012733
 H         -0.9478920425        6.0245428591        0.3253745652
 H         -1.5200567134        5.0619226263       -1.0198630202
 H         -2.4621271507        4.4770011669        1.2400679432
 H         -0.8565027311        4.0115224128        1.7678621095
 O         -2.1886048963        1.9926484923        1.6596946957
 C         -2.5474467114        0.6583039058        1.6758458064
 O         -2.8392593196        0.2154792573        2.8069698837
 H         -0.3318976317       -1.0908612959        0.9536023206
 C         -0.4789450832       -1.9510974089        0.3172600085
 C         -1.7683842672       -2.3310431736       -0.0309876485
 C         -1.9347278323       -3.4501316077       -0.8368922030
 C         -0.8321857445       -4.1453968330       -1.3030100062
 C          0.4505587316       -3.7329152899       -0.9927139319
 C          0.6271079024       -2.6230112991       -0.1745240859
 N          1.9177816916       -2.1731436696        0.1788201652
 S          2.2105176619       -0.5151969268       -0.0101799437
 O          1.5470642693        0.2138763398        1.0410054068
 O          1.9143658023       -0.1197978000       -1.3683956493
 C          3.9722740312       -0.4804910177        0.2651580992
 C          4.8327618557       -0.2766605935       -0.7961862166
 C          6.1992183599       -0.2805554477       -0.5614946106
 C          6.6783552243       -0.4911012461        0.7224330731
 C          5.8016026264       -0.6936992957        1.7783542084
 C          4.4348079575       -0.6884315788        1.5508138214
 H          3.7148492901       -0.8329496894        2.3396038684
 H          6.1773917155       -0.8549152367        2.7758408207
 H          7.7417025430       -0.4951607949        0.9026310533
 H          6.8827130444       -0.1201516471       -1.3796038028
 H          4.4127269196       -0.1133981145       -1.7756873020
 H          2.6365426615       -2.6890196360       -0.3144958785
 H          1.3087111869       -4.2612861041       -1.3804849031
 H         -0.9743144348       -5.0105658034       -1.9328895496
 H         -2.9269158801       -3.7713292441       -1.1093011051
 C         -2.9202928720       -1.5109712179        0.5000285206
 H         -3.0636699506       -1.7673484823        1.5608296317
 C         -4.2196666569       -1.7521074990       -0.2409939122
 C         -5.1477138963       -2.8468100729        0.1903571717
 C         -5.5108360669       -1.4148896484        0.4402526597
 H         -6.3019298947       -0.9705544402       -0.1446718529
 H         -5.4504530374       -1.0379600530        1.4511392507
 H         -5.6955431881       -3.3865973701       -0.5673082178
 H         -4.8530875863       -3.4475445184        1.0375589865
 H         -4.1384510709       -1.5319684629       -1.2993544747
 O         -2.1448325403       -0.0433146880       -1.8432624389
