  62
        -98.94964083
 C         -1.6860088792       -1.2201050599        0.3374401911
 C         -1.3304448395       -0.1658621906       -0.5357410998
 C         -1.8743915094        1.1533995397       -0.2018141706
 C         -2.6161498892        1.3065614805        0.9097638494
 C         -3.2020949091        2.5985514408        1.4114366086
 C         -4.5380358093        2.9802262503        0.7587249086
 C         -4.4426428896        3.4582558792       -0.6906666718
 H         -5.4094936397        3.8957019090       -0.9472707919
 H         -3.6969515696        4.2507497892       -0.7606351325
 C         -4.1169670998        2.3504319285       -1.7018944810
 H         -4.3042982897        1.3757299888       -1.2457224102
 H         -4.7839557200        2.4359164378       -2.5625761809
 C         -2.6839353299        2.3800602081       -2.2330331814
 H         -2.5233210501        3.2976327677       -2.8030883021
 H         -2.5525209301        1.5331295776       -2.9108564808
 C         -1.6062121697        2.2872347790       -1.1445434015
 H         -0.6429804698        2.0983775286       -1.6249715016
 H         -1.5381755596        3.2267044094       -0.5958583223
 H         -5.2113472092        2.1218885103        0.8166723494
 H         -4.9727732991        3.7845357607        1.3567048281
 H         -3.3656625888        2.4678551516        2.4836313287
 H         -2.4789527792        3.4028244507        1.2703664278
 O         -2.9094712290        0.2733878911        1.7444144003
 C         -2.4552638990       -1.0085209091        1.4794442511
 O         -2.7964117088       -1.8621040985        2.3257987018
 H          0.5016589410       -1.2027380889        1.6273502206
 C          1.0457780509       -1.7658713395        0.8827123709
 C          0.3562179907       -2.5710205101       -0.0150287084
 C          1.0861243605       -3.2942035008       -0.9503109980
 C          2.4653400205       -3.1852399708       -1.0009616684
 C          3.1417524407       -2.3397387802       -0.1406100192
 C          2.4207962609       -1.6215691195        0.8061837204
 N          3.0543811411       -0.7278153988        1.6957717196
 S          2.6458191710        0.8935526011        1.5650173485
 O          3.4781347112        1.5672140918        2.5393644278
 O          1.2234381310        1.0612326912        1.7148996987
 C          3.1776051306        1.3511095199       -0.0758254420
 C          2.4061724603        0.9947542791       -1.1637343715
 C          2.8703995900        1.2973378781       -2.4352235118
 C          4.0869153000        1.9415387780       -2.5974738826
 C          4.8498670202        2.2909339889       -1.4931700230
 C          4.3953311405        1.9889190698       -0.2200462127
 H          4.9513436307        2.2424031205        0.6682042170
 H          5.7952422002        2.7934514788       -1.6199456836
 H          4.4406805897        2.1727047473       -3.5898641729
 H          2.2705353998        1.0208615675       -3.2875899615
 H          1.4597188004        0.4965018191       -1.0188708009
 H          4.0622947411       -0.8108268588        1.7037209894
 H          4.2144795207       -2.2325735002       -0.1987753395
 H          3.0187251203       -3.7516264314       -1.7342524681
 H          0.5733653304       -3.9385273714       -1.6456882174
 C         -1.1499958893       -2.6170053601        0.0816835920
 H         -1.4232401591       -3.2167717695        0.9626093525
 C         -1.8113300595       -3.2152815110       -1.1435563374
 C         -2.0440944595       -4.6927156911       -1.2359033062
 C         -3.1995434095       -3.7641921810       -1.0169111167
 H         -3.8950896297       -3.6019902216       -1.8266018566
 H         -3.6552123793       -3.7314180903       -0.0375660366
 H         -1.7231066093       -5.3030052005       -0.4052718959
 H         -1.9507654197       -5.1710074118       -2.1992470459
 H         -1.5679206698       -2.6749652817       -2.0512421479
 O         -0.5880921197       -0.3191811713       -1.5416892798
