  62
        -98.94037847
 C         -2.1235954992       -0.0141134092        0.2305839049
 C         -3.0429883054        1.0531259628        0.0699979888
 C         -4.3078087968        0.7316709231       -0.6022871237
 C         -4.5207530747       -0.5258807726       -1.0304376697
 C         -5.7832999670       -1.0086269084       -1.6825369362
 C         -6.7739352389       -1.5502852775       -0.6424483344
 C         -6.9973907315       -0.6131071092        0.5444094716
 H         -7.7356033702       -1.0845784798        1.1967929390
 H         -6.0691991624       -0.5329379067        1.1148661539
 C         -7.4782915205        0.7934238181        0.1610755436
 H         -8.2952094474        1.0782070290        0.8275487494
 H         -7.8768932104        0.7852300776       -0.8540816415
 C         -6.4097815118        1.8822422835        0.2761960341
 H         -5.9425745816        1.8343690212        1.2631493815
 H         -6.9043440214        2.8540388170        0.1959405583
 C         -5.3014928606        1.8443593869       -0.7835866434
 H         -5.7466352488        1.8049471682       -1.7800291239
 H         -4.7295410892        2.7732429667       -0.6997583866
 H         -7.7259783954       -1.7432981646       -1.1403161017
 H         -6.3909231677       -2.4997046088       -0.2612339027
 H         -6.2352275967       -0.1891233778       -2.2381250073
 H         -5.5268324796       -1.8093976025       -2.3782681757
 O         -3.6141768794       -1.5214585171       -0.8726129028
 C         -2.3984435261       -1.3016196495       -0.2348822291
 O         -1.6804519193       -2.3159770086       -0.1657024665
 H          1.5047449645        1.4518442675        1.5453149194
 C          1.5031415826        1.0836471663        0.5300775444
 C          0.3661336784        0.4583742977        0.0321106934
 C          0.3870131123       -0.0024704767       -1.2769866518
 C          1.5112859360        0.1697411895       -2.0669263227
 C          2.6365107272        0.8003707449       -1.5705823708
 C          2.6317550024        1.2579026598       -0.2584010367
 N          3.7691703513        1.8947990227        0.2582327230
 S          5.2804239881        1.2873345403       -0.1208452661
 O          6.1346900001        1.7106479170        0.9658006556
 O          5.6693105705        1.7293399229       -1.4364833404
 C          5.0860759772       -0.4865225945       -0.1106808201
 C          5.3697840177       -1.2153756403       -1.2473601704
 C          5.1887669052       -2.5890915881       -1.2257978802
 C          4.7251326402       -3.2060906027       -0.0746185479
 C          4.4474552001       -2.4601785749        1.0608091954
 C          4.6292654842       -1.0871843055        1.0458910995
 H          4.4282860588       -0.4822704054        1.9152156183
 H          4.0863873634       -2.9434808559        1.9543868285
 H          4.5784399170       -4.2745867399       -0.0608975913
 H          5.4052808354       -3.1721587505       -2.1064094075
 H          5.7243422025       -0.6958718301       -2.1228196219
 H          3.7000758415        2.1532341316        1.2311989508
 H          3.5093628725        0.9582801823       -2.1826288219
 H          1.5070222103       -0.1902782131       -3.0845381474
 H         -0.4814073476       -0.5014864886       -1.6790060040
 C         -0.8271557914        0.2951532779        0.9485818142
 H         -0.9980940135        1.2668542409        1.4348631045
 C         -0.5098170130       -0.7310166399        2.0240701126
 C          0.0621287775       -0.3052658971        3.3415936085
 C         -1.3568129798       -0.7802793623        3.2591940209
 H         -1.6120249061       -1.7446510980        3.6713900659
 H         -2.1447045783       -0.0460562008        3.3496990105
 H          0.2204866730        0.7491481069        3.5120601396
 H          0.7902291770       -0.9442846144        3.8170824099
 H         -0.1839115696       -1.6789163345        1.6142542111
 O         -2.8150940253        2.2246105286        0.4792990042
