  62
        -98.93848553
 C          2.1988067396       -0.8287705277        0.1262550553
 C          3.1161098628       -0.5369365989       -0.9156355439
 C          3.9162914162        0.6894380199       -0.7733843984
 C          3.7279321829        1.4747096536        0.3006402453
 C          4.3879065925        2.7897365230        0.6326403375
 C          5.8972767219        2.9091041128        0.3819753921
 C          6.6952238922        1.6150822433        0.5992860165
 H          7.5376963647        1.8249898305        1.2608318532
 H          6.0705768126        0.8693720883        1.0940675677
 C          7.2530923318        1.0321161130       -0.7013191603
 H          7.6558191284        1.8476449373       -1.3058999903
 H          8.0830587710        0.3641850668       -0.4588239913
 C          6.2582871680        0.2312366177       -1.5404835101
 H          6.0193873570       -0.7083447485       -1.0351572282
 H          6.7453577914       -0.0272532247       -2.4836552468
 C          4.9310525970        0.9423580328       -1.8512303674
 H          5.0826290513        2.0058384483       -2.0188448188
 H          4.5182248027        0.5015097762       -2.7625469537
 H          6.0708166176        3.2677175663       -0.6315731268
 H          6.2672777688        3.6833264806        1.0562832193
 H          3.8684333470        3.5778998697        0.0794150761
 H          4.1784618178        2.9521313709        1.6928317659
 O          2.8257101766        1.1651298695        1.2732321785
 C          2.0446904580        0.0211150358        1.2200069901
 O          1.2846946618       -0.1065278864        2.2012078244
 H         -0.6863869110       -1.2286592176        1.5716312258
 C         -0.9659111266       -1.2591653036        0.5298823352
 C         -0.0445499098       -1.6868881460       -0.4148524525
 C         -0.4125595593       -1.6726151399       -1.7564792278
 C         -1.6715124288       -1.2457025811       -2.1381934866
 C         -2.5851827965       -0.8138505788       -1.1928231812
 C         -2.2204933555       -0.8073214661        0.1465797383
 N         -3.1331606875       -0.3422699549        1.1131833792
 S         -3.7759580578        1.1925532400        0.8683018858
 O         -2.8916764425        2.0228741949        0.0823689275
 O         -4.1186910357        1.6801951321        2.1867562459
 C         -5.2791035258        0.8755415864       -0.0343923341
 C         -6.2166493403        0.0386397044        0.5388509866
 C         -7.3933812159       -0.2172371722       -0.1465744926
 C         -7.6128104883        0.3666012709       -1.3855118668
 C         -6.6636722081        1.2077209259       -1.9457285131
 C         -5.4838888357        1.4673080860       -1.2653504820
 H         -4.7149249237        2.1104856696       -1.6631722893
 H         -6.8360524996        1.6614306873       -2.9084857681
 H         -8.5291118424        0.1652760212       -1.9176434909
 H         -8.1341740230       -0.8700144988        0.2862602252
 H         -6.0079619871       -0.3901336027        1.5046632715
 H         -2.7731797013       -0.4138679682        2.0550172470
 H         -3.5643950101       -0.4696269783       -1.4831222720
 H         -1.9436140420       -1.2441520597       -3.1826917931
 H          0.3080535389       -1.9826793467       -2.4997554398
 C          1.3561753150       -2.0865890214       -0.0194830884
 H          1.8005911151       -2.6323646132       -0.8623665536
 C          1.3988473456       -2.9746804025        1.2067570123
 C          0.9422185364       -4.3971054095        1.0887629545
 C          2.3977823213       -4.0896306418        1.2676681466
 H          2.8613103092       -4.3131169531        2.2169264308
 H          3.0551896588       -4.2190111018        0.4203750138
 H          0.4033586651       -4.8356002762        1.9144913641
 H          0.6114590457       -4.7337509942        0.1179962315
 H          1.1901085750       -2.4511897030        2.1309028120
 O          3.2575898762       -1.2715627783       -1.9285419275
