  62
        -98.94098663
 C          1.8710623998        0.5522108697       -0.3666413688
 C          2.4994113897       -0.2615364509        0.6098215609
 C          3.9434722196       -0.0405901709        0.7925055213
 C          4.5668858897        0.9091694896        0.0729000520
 C          6.0374483297        1.2038102097        0.1288398324
 C          6.8074539299        0.3856374104       -0.9171391079
 C          6.4605383700       -1.1031882496       -0.9132400889
 H          5.4216128401       -1.2276732195       -1.2272622992
 H          7.0843212902       -1.5840845691       -1.6699258091
 C          6.6679897198       -1.7998186205        0.4388792507
 H          7.3217952697       -1.1963767908        1.0696600812
 H          7.1730629799       -2.7527432203        0.2671185202
 C          5.3765850897       -2.1106824610        1.1979536003
 H          4.6811891499       -2.6349752607        0.5377536098
 H          5.6213785296       -2.7881372215        2.0203422299
 C          4.6490896095       -0.9026792414        1.8014954409
 H          3.8687494594       -1.2835177519        2.4669170205
 H          5.3484609793       -0.3103251617        2.3949595414
 H          7.8764684899        0.5129852503       -0.7368126977
 H          6.5798068101        0.7877531110       -1.9071858977
 H          6.1830166396        2.2661476398       -0.0746235769
 H          6.4104626695        0.9807499891        1.1265548524
 O          3.9258604098        1.6885331101       -0.8358245977
 C          2.5753340099        1.5180725602       -1.0881069880
 O          2.1197724300        2.2783737807       -1.9679477777
 H         -2.2421024801        0.7926312897       -0.9368100694
 C         -1.8800375003        1.1141245892        0.0261903409
 C         -0.5293217104        1.0018712991        0.3357008711
 C         -0.0925198306        1.4554766884        1.5730168914
 C         -0.9860365908        2.0021366677        2.4778931616
 C         -2.3279983308        2.1120022378        2.1671859114
 C         -2.7763404905        1.6709898586        0.9260654010
 N         -4.1239386505        1.8047049187        0.5744003209
 S         -4.8773811302        0.7919743193       -0.5074102899
 O         -4.4192356599        1.0504756701       -1.8495633897
 O         -6.2885111802        1.0098430390       -0.2717032700
 C         -4.4491976201       -0.8752692810       -0.0334576308
 C         -4.3488607104       -1.2034431818        1.3039458790
 C         -4.0603600903       -2.5128677420        1.6531419482
 C         -3.8898014201       -3.4715625814        0.6666020577
 C         -4.0030523699       -3.1288693606       -0.6714083421
 C         -4.2823316099       -1.8185695804       -1.0267009914
 H         -4.3670183697       -1.5079241198       -2.0557678712
 H         -3.8745854297       -3.8762528401       -1.4384873825
 H         -3.6673247001       -4.4904057615        0.9419631271
 H         -3.9699527105       -2.7812467626        2.6933780681
 H         -4.4907287506       -0.4457980523        2.0568173994
 H         -4.7403227906        2.1367269282        1.3000320709
 H         -3.0213850810        2.5477285574        2.8700125915
 H         -0.6291657910        2.3476953972        3.4362851619
 H          0.9535027093        1.3804904883        1.8285094916
 C          0.4001959399        0.4101841898       -0.7012660291
 H          0.2498375900        0.9812900603       -1.6296533188
 C          0.0349446800       -1.0407914601       -0.9688765201
 C         -0.9095378697       -1.4028706995       -2.0727170105
 C          0.5524511603       -1.7006176493       -2.2108749204
 H          0.8835334104       -2.7263037893       -2.1519948809
 H          1.1345149004       -1.0921402888       -2.8887976399
 H         -1.3206502397       -0.6065562092       -2.6759007101
 H         -1.5872802297       -2.2269069296       -1.9123194611
 H          0.0103479199       -1.6389630106       -0.0664925704
 O          1.9004254996       -1.1220177213        1.3047398702
