  62
        -98.94444830
 C         -2.6495838120       -1.3044295971        0.1185048021
 C         -2.5771839401       -0.2960591066       -0.8729569872
 C         -3.5906177351        0.7660038510       -0.7814474840
 C         -4.5128554598        0.7201536524        0.1967870151
 C         -5.5654411404        1.7625472950        0.4360310043
 C         -5.0709693744        2.8352333448        1.4164792970
 C         -3.6922218083        3.3993554405        1.0724487104
 H         -3.4616296329        4.1690320873        1.8121966657
 H         -2.9428134933        2.6121639745        1.1860949133
 C         -3.5844627173        3.9982438807       -0.3368557142
 H         -4.5808611975        4.2058786022       -0.7288690084
 H         -3.0553871654        4.9513932159       -0.2725575453
 C         -2.8173804077        3.1323566412       -1.3383553826
 H         -2.6133463388        3.7387999170       -2.2252102095
 H         -1.8512738428        2.8452780641       -0.9130849579
 C         -3.5363763992        1.8614230634       -1.8087606490
 H         -4.5396794145        2.1143634293       -2.1576687868
 H         -2.9709329484        1.4545237687       -2.6523671279
 H         -5.8016034156        3.6457198232        1.4386775408
 H         -5.0202021922        2.3950309795        2.4148966517
 H         -5.8385804110        2.2203365121       -0.5125925544
 H         -6.4437092230        1.2729715866        0.8599698591
 O         -4.5597642617       -0.2719999959        1.1214904866
 C         -3.6234550055       -1.2907453126        1.1201925794
 O         -3.7640939414       -2.1176628069        2.0429014717
 O         -1.7211579663       -0.2756844870       -1.7971343493
 C         -1.6349182851       -2.4367051920        0.1686469829
 C         -0.2955707100       -1.8407296042        0.5272014782
 C         -0.0278591105       -1.5323115205        1.8584422479
 C          1.1593344389       -0.9221600005        2.2158831708
 C          2.1004350689       -0.5971038396        1.2536239235
 C          1.8342219674       -0.8835399980       -0.0778325650
 C          0.6499608557       -1.5176740547       -0.4323639623
 H          0.4510553246       -1.7230991901       -1.4719868644
 N          2.7771176666       -0.5482820140       -1.0637902950
 S          3.4810498572        0.9738292275       -1.0135354000
 O          2.6155488648        1.9509390171       -0.3945804699
 O          3.8913919007        1.2457833239       -2.3740837706
 C          4.9359198008        0.7246005615       -0.0152675533
 C          5.7829595757       -0.3152380110       -0.3457792280
 C          6.9245400927       -0.5157368988        0.4134900235
 C          7.2009280896        0.3239758894        1.4822766300
 C          6.3430085407        1.3658925732        1.7989212300
 C          5.1984922879        1.5710619896        1.0438739201
 H          4.4992693578        2.3640687652        1.2572550207
 H          6.5592413463        2.0181511989        2.6297883796
 H          8.0899647805        0.1654047944        2.0720182298
 H          7.5939652102       -1.3251060977        0.1704792990
 H          5.5334625277       -0.9436844619       -1.1841976832
 H          2.4737513259       -0.7701352004       -2.0013773558
 H          3.0227505044       -0.1091594762        1.5235428263
 H          1.3547389872       -0.6930389755        3.2525603220
 H         -0.7731184367       -1.7661648279        2.6064950169
 H         -1.9507259937       -3.0862960401        0.9956254882
 C         -1.6276137950       -3.2471835831       -1.1103608168
 C         -0.9537468198       -4.5854674339       -1.1247206807
 C         -2.4483256150       -4.4978338959       -1.1869867533
 H         -2.9416623798       -4.7328731899       -2.1182494309
 H         -3.0153224575       -4.7772789956       -0.3109812784
 H         -0.4191053011       -4.8851027638       -2.0131333243
 H         -0.5040295234       -4.9248049133       -0.2039565821
 H         -1.5719312750       -2.6396111873       -2.0049930838
