  62
        -98.93785711
 C          2.5863484361        1.1469952441        0.4886255942
 C          3.4357591128        0.8389503761       -0.6031676737
 C          4.5917630225       -0.0187480906       -0.2905569719
 C          4.7810386584       -0.4506333329        0.9684606078
 C          5.8809584316       -1.3730808585        1.4058982536
 C          5.4389920925       -2.8411060455        1.3279461635
 C          4.7914027858       -3.2210047168       -0.0036920661
 H          4.5494526281       -4.2849267655        0.0445607851
 H          3.8470423796       -2.6815626333       -0.1074974986
 C          5.6671835530       -2.9511358654       -1.2352214080
 H          5.6179119663       -3.8187363709       -1.8965841822
 H          6.7081407159       -2.8347036996       -0.9314021823
 C          5.2418687802       -1.7363868360       -2.0621279249
 H          4.1750849754       -1.8037845268       -2.2895381235
 H          5.7815785672       -1.7665127445       -3.0124129210
 C          5.5132605458       -0.3673082777       -1.4257827785
 H          6.5560569028       -0.3091710368       -1.1074691266
 H          5.3444748284        0.3940643430       -2.1929792900
 H          6.3108756861       -3.4735900471        1.5047038930
 H          4.7161017221       -3.0277019447        2.1255228312
 H          6.7547750716       -1.2117786626        0.7775984433
 H          6.1387180163       -1.1345854812        2.4392083859
 O          3.9489762875       -0.1277449479        1.9919691058
 C          2.8357073439        0.6639676076        1.7762064265
 O          2.1539544711        0.8768890469        2.8000683805
 H         -1.0138633323        1.7904921803        1.6385610605
 C         -0.9897124167        1.1902097666        0.7384661552
 C          0.1563818719        1.1820100430       -0.0426177859
 C          0.1782790179        0.3902360904       -1.1869570284
 C         -0.9256641304       -0.3659834006       -1.5357136171
 C         -2.0668685015       -0.3557911414       -0.7522662397
 C         -2.0976381372        0.4258725724        0.3942015214
 N         -3.2478959096        0.4251425425        1.2015323633
 S         -4.7289227821        0.7355524076        0.4716745912
 O         -4.5697869858        1.5610708265       -0.7028417185
 O         -5.5644902798        1.2677821977        1.5255062070
 C         -5.3303524976       -0.8753626145        0.0114428324
 C         -5.6338943421       -1.1449967907       -1.3086257743
 C         -6.1093411817       -2.4034857080       -1.6432150987
 C         -6.2731146506       -3.3639068115       -0.6567916296
 C         -5.9665076600       -3.0759867098        0.6650104039
 C         -5.4914776359       -1.8198070180        1.0062208209
 H         -5.2465504243       -1.5548181411        2.0212981921
 H         -6.0958523605       -3.8254460124        1.4291899848
 H         -6.6425603252       -4.3426427581       -0.9193981735
 H         -6.3492189704       -2.6289025441       -2.6699342655
 H         -5.4874507989       -0.3680790709       -2.0421533139
 H         -3.1488355215        0.9599452738        2.0523871988
 H         -2.9275970783       -0.9467218830       -1.0195723724
 H         -0.8970538108       -0.9735576280       -2.4275931238
 H          1.0676033630        0.3811072250       -1.7987295587
 C          1.3462280187        2.0165500343        0.3559902362
 H          1.1565948700        2.3958530432        1.3728173975
 C          1.5602331304        3.2299589710       -0.5394851596
 C          0.8720912058        3.4374751092       -1.8517073366
 C          0.4770674610        4.2609259247       -0.6653180329
 H          0.7476403937        5.3056660782       -0.6398682929
 H         -0.4744058016        4.0405110535       -0.2031073290
 H          0.1817551936        2.6844883314       -2.1972719013
 H          1.4401109729        3.9020464023       -2.6431078571
 H          2.5762028255        3.6051315063       -0.4707041650
 O          3.2585801843        1.2456962563       -1.7791382105
