  62
        -98.93941783
 C          2.5190972641       -0.8058561302       -0.7325975511
 C          3.1498718606       -0.3498330538        0.4505424811
 C          3.7791844442        0.9769106389        0.3685028476
 C          3.7124621862        1.6708280990       -0.7821227560
 C          4.2619356938        3.0526590623       -0.9844606345
 C          3.2071391673        4.1225103653       -0.6687765978
 C          2.4984460517        3.9158157239        0.6700211110
 H          1.7993265517        4.7448073644        0.7992992515
 H          1.9049384061        2.9995436432        0.6235646729
 C          3.4386217316        3.8469548267        1.8815312617
 H          4.4097104926        4.2699912310        1.6217620447
 H          3.0219136755        4.4599023583        2.6834482085
 C          3.6352187326        2.4413793097        2.4526858202
 H          2.6616436215        1.9761647361        2.6281712273
 H          4.1319396417        2.5346933108        3.4221107541
 C          4.4775046237        1.4859496072        1.5979772081
 H          5.4233535627        1.9637001240        1.3346303877
 H          4.6949806220        0.6026551023        2.2055688241
 H          3.6937728668        5.0994234477       -0.6775399133
 H          2.4542583943        4.1104915711       -1.4602486274
 H          5.1335098185        3.1873717495       -0.3470156204
 H          4.5668976469        3.1521874835       -2.0275374910
 O          3.0812168419        1.2066886368       -1.8914142822
 C          2.4600694847       -0.0306449253       -1.8905327560
 O          1.8924268657       -0.3215765120       -2.9642508747
 H         -0.2408948903       -0.5382236911       -0.8943514590
 C         -0.3430326530       -1.2104198585       -0.0502745159
 C          0.6574391941       -2.1477558392        0.1821503049
 C          0.5160522144       -3.0158145887        1.2550785456
 C         -0.5922544789       -2.9295040849        2.0812204730
 C         -1.5784162331       -1.9879951210        1.8549624176
 C         -1.4532507733       -1.1217773144        0.7752453755
 N         -2.4491395744       -0.1511136578        0.5353046078
 S         -4.0452526969       -0.7134962164        0.5081618054
 O         -4.4835203867       -0.9060683795        1.8672376686
 O         -4.1496422634       -1.8671303155       -0.3581829899
 C         -4.8960204066        0.6795224460       -0.2053211980
 C         -5.2281397023        1.7436123859        0.6115460193
 C         -5.8778903631        2.8349141662        0.0574161753
 C         -6.1829701851        2.8439548573       -1.2957075951
 C         -5.8437052954        1.7682353071       -2.1024337026
 C         -5.1920028032        0.6741876645       -1.5550216967
 H         -4.9177378939       -0.1875035247       -2.1426390681
 H         -6.0842529918        1.7765406125       -3.1534213106
 H         -6.6911792708        3.6933093443       -1.7242848932
 H         -6.1455420577        3.6724077581        0.6812356161
 H         -4.9809756806        1.6877148956        1.6587363918
 H         -2.2573455509        0.3702298451       -0.3103496189
 H         -2.4471974833       -1.9190090530        2.4890772915
 H         -0.6887979603       -3.6067442506        2.9165483546
 H          1.2743976947       -3.7553880931        1.4510851178
 C          1.8350776550       -2.1623531873       -0.7634629800
 H          1.4412053389       -2.2781656330       -1.7837627331
 C          2.8266804185       -3.2741360850       -0.4978317712
 C          2.5373345308       -4.6616782981       -0.9833047400
 C          3.6025508953       -3.8424092373       -1.6463564637
 H          4.6358446165       -4.1116173400       -1.4870738935
 H          3.4032038833       -3.4404005781       -2.6293158600
 H          2.8406526974       -5.4970134562       -0.3706358088
 H          1.6127804996       -4.8207257838       -1.5178007710
 H          3.3461176627       -3.1586559269        0.4457365156
 O          3.1921409282       -1.0112326712        1.5197581577
