  62
        -98.93960974
 C          1.0713351096        1.2672834999        0.4364557403
 C          2.0342645398        1.0520913704       -0.5744817997
 C          3.1611879602        0.1616910110       -0.2331133597
 C          3.1986971404       -0.4101662891        0.9837502203
 C          4.2257343709       -1.3566825286        1.5529166203
 C          5.7012466407       -1.0183356278        1.2897494303
 C          6.3790973712       -1.9743020274        0.3066469803
 H          7.4554741412       -1.9606610169        0.4918824304
 H          6.0263165517       -2.9877659776        0.5092596003
 C          6.1606648711       -1.6500675775       -1.1701090497
 H          6.5706981716       -2.4773461873       -1.7541590197
 H          6.7287216807       -0.7546137572       -1.4313100596
 C          4.7035947710       -1.4333314082       -1.5839222397
 H          4.0537294714       -2.1601749986       -1.0967634298
 H          4.6309012112       -1.6144290182       -2.6585847797
 C          4.1930171003       -0.0098974385       -1.3143462697
 H          5.0361959500        0.6553287419       -1.1067424096
 H          3.7124029701        0.3837655513       -2.2155637497
 H          5.7892796002        0.0094954522        0.9415226904
 H          6.2311743207       -1.0840983476        2.2413880204
 H          4.0338108309       -1.3681937387        2.6284674403
 H          4.0029402714       -2.3633883887        1.1892975002
 O          2.2194007203       -0.2098316796        1.9125839902
 C          1.1347755699        0.6087554499        1.6627782002
 O          0.3075309098        0.6721478894        2.5960259402
 H         -0.7178922295       -0.4033633610       -0.1738698699
 C         -1.2067366698        0.2109238288       -0.9143735599
 C         -0.9841903205        1.5808031589       -0.9228400498
 C         -1.5992324908        2.3446170386       -1.9066802098
 C         -2.4048120705        1.7407857183       -2.8570967798
 C         -2.6396832198        0.3778227682       -2.8315409399
 C         -2.0331826595       -0.3935436816       -1.8469218599
 N         -2.2493830188       -1.7781541117       -1.7617320600
 S         -2.3893152185       -2.4726113418       -0.2446048700
 O         -1.0905971284       -2.6232776112        0.3632455701
 O         -3.1161026379       -3.7022892522       -0.4828162800
 C         -3.4139707591       -1.3367908923        0.6744343800
 C         -4.7403195891       -1.2455740630        0.2954926900
 C         -5.5646866296       -0.3384035034        0.9390358900
 C         -5.0497924500        0.4656864368        1.9450523100
 C         -3.7196209800        0.3580037474        2.3176395201
 C         -2.8888584995       -0.5507321221        1.6791914501
 H         -1.8490028295       -0.6418396316        1.9538364201
 H         -3.3100364503        0.9782257276        3.0992330501
 H         -5.6877150504        1.1781237565        2.4438704300
 H         -6.6011663196       -0.2577244739        0.6539504099
 H         -5.1046199788       -1.8958268332       -0.4832285901
 H         -2.9348144486       -2.1428574420       -2.4068836000
 H         -3.2769663496       -0.0878432221       -3.5672924899
 H         -2.8674750408        2.3435836581       -3.6235250698
 H         -1.4423820314        3.4103101487       -1.9338857398
 C         -0.1245772408        2.1630066793        0.1740002302
 H         -0.7205278008        2.1458769890        1.0994426002
 C          0.3183959885        3.5863790895       -0.0926538897
 C         -0.5598524321        4.7354222591        0.2994356203
 C          0.6939527580        4.4539782497        1.0698599803
 H          1.5314077677        5.1267205401        0.9621639004
 H          0.6049585682        4.0244207596        2.0574559403
 H         -1.5037653420        4.5059891886        0.7702181703
 H         -0.5819487625        5.6076462691       -0.3363198297
 H          0.9110707785        3.6751070299       -0.9953913797
 O          1.9623116195        1.5768143304       -1.7172014597
