  62
        -98.93523956
 C         -0.4647870560       -1.8513663171       -0.0138537104
 C         -1.0518589106       -0.8786734050       -0.8564570885
 C         -2.3084045275       -0.2574294315       -0.3748014485
 C         -2.7477256883       -0.5404019961        0.8637631871
 C         -3.9880620605       -0.0435593760        1.5578423726
 C         -5.2623232291       -0.7473989643        1.0650152609
 C         -5.3637387546       -0.8983935283       -0.4503770206
 H         -4.5016664039       -1.4615554751       -0.8124523318
 H         -6.2539478771       -1.4953792723       -0.6659555597
 C         -5.4791493537        0.4102270766       -1.2287325590
 H         -5.6472458512        0.1489758282       -2.2767490654
 H         -6.3573597757        0.9578278564       -0.8796333114
 C         -4.2652472106        1.3404342537       -1.1607074932
 H         -4.3842778211        2.0864280579       -1.9515386898
 H         -4.2408373910        1.8848922886       -0.2218977660
 C         -2.9243611347        0.6563357236       -1.4062290704
 H         -2.9871919261        0.0695185731       -2.3303765121
 H         -2.1671074975        1.4230471960       -1.6069439021
 H         -6.1278024973       -0.1965952662        1.4371064371
 H         -5.2868561194       -1.7490299934        1.5012131364
 H         -3.8606731776       -0.2629919837        2.6199855954
 H         -4.0748333842        1.0322771745        1.4467760478
 O         -2.0872167162       -1.4090149892        1.6834417132
 C         -0.9737059577       -2.1035436202        1.2629487183
 O         -0.5207184886       -2.9086848821        2.1016809027
 H          1.4387010525       -0.0348254027       -0.2846891295
 C          2.1633623636       -0.6413023901        0.2367322877
 C          1.9931060123       -2.0174645158        0.2821669536
 C          2.9397469557       -2.7899470449        0.9440241491
 C          4.0365760360       -2.1946664108        1.5413888900
 C          4.2056366261       -0.8230183671        1.4928441350
 C          3.2580497302       -0.0405405237        0.8409167662
 N          3.3700951998        1.3536988741        0.8341227148
 S          2.6659404947        2.3130419976       -0.3299068281
 O          2.7539322798        1.7167104322       -1.6414205333
 O          3.3298489333        3.5923334798       -0.1843042935
 C          0.9674880411        2.5238605029        0.1682356404
 C          0.1632724061        3.2596229496       -0.6796927181
 C         -1.1405604701        3.5362681419       -0.3022055583
 C         -1.6190580522        3.0680782989        0.9116474598
 C         -0.8067034382        2.3160783648        1.7437522357
 C          0.5030585097        2.0470513442        1.3768094938
 H          1.1517494455        1.4682988980        2.0140463385
 H         -1.1838018317        1.9378515886        2.6807245509
 H         -2.6298256871        3.2943315262        1.2113435002
 H         -1.7763012491        4.1165579006       -0.9518728367
 H          0.5748712330        3.5990575848       -1.6170926932
 H          4.2208191235        1.7414514455        1.2110675847
 H          5.0562344793       -0.3556416194        1.9645968871
 H          4.7661146994       -2.8034408715        2.0533215860
 H          2.8023181691       -3.8594903894        1.0029241907
 C          0.7841974672       -2.6467173014       -0.3612955340
 H          0.6448250833       -3.6346338328        0.1088714949
 C          0.9744574685       -2.8837566064       -1.8513982308
 C          1.9277570605       -2.0995861578       -2.6963659253
 C          2.2322356713       -3.5263584421       -2.3579999506
 H          2.1541499322       -4.2696254743       -3.1370576851
 H          3.0215888505       -3.7123825956       -1.6454382373
 H          1.6160851143       -1.8543224105       -3.7003155770
 H          2.5057202910       -1.3154553818       -2.2310552379
 H          0.0485759343       -3.1839736963       -2.3314550331
 O         -0.5914691882       -0.5311557976       -1.9742251561
