  62
        -98.94433954
 C         -2.2596035193       -1.0572899903        0.2716952696
 C         -2.4260121292        0.0616712600       -0.5799139200
 C         -3.3595557592        1.0929264999       -0.1067728397
 C         -3.9534033591        0.9691789496        1.0931375503
 C         -4.9044398690        1.9514415694        1.7208385506
 C         -6.3595020791        1.7944262197        1.2577873506
 C         -6.6424857491        2.2603016501       -0.1709996792
 H         -7.7275236591        2.2983568602       -0.2860808092
 H         -6.2655119590        3.2750900702       -0.3022607989
 C         -6.0625822692        1.3483993104       -1.2611825195
 H         -6.8195997992        1.1710621707       -2.0283346596
 H         -5.8116411792        0.3773105503       -0.8283827799
 C         -4.8272449391        1.9092479606       -1.9656900594
 H         -4.4784459392        1.1676208708       -2.6887649696
 H         -5.0968953591        2.8141600208       -2.5147836491
 C         -3.6604181491        2.2389277602       -1.0255155593
 H         -2.7700605191        2.4229185503       -1.6321682793
 H         -3.8812963190        3.1386621900       -0.4515216090
 H         -6.9818650890        2.3803269495        1.9379993708
 H         -6.6477409791        0.7460197097        1.3631838703
 H         -4.8647258890        1.7758390591        2.7980740206
 H         -4.5648531690        2.9685906495        1.5227272709
 O         -3.7305489692       -0.0962440807        1.9066160999
 C         -2.9061752293       -1.1342840906        1.5104646496
 O         -2.8276903893       -2.0638689009        2.3382731693
 H          0.2166323207       -0.4527595500       -1.3389106403
 C          0.7452430107       -0.9638627102       -0.5479477705
 C          0.0787992207       -1.9177564304        0.2078234693
 C          0.7628714106       -2.5401823708        1.2455173690
 C          2.0813365407       -2.2163815610        1.5135776991
 C          2.7423000507       -1.2654352008        0.7566233194
 C          2.0628309907       -0.6284017204       -0.2731869604
 N          2.7194753108        0.3493739898       -1.0431170701
 S          3.4940999409        1.5912411995       -0.2190754097
 O          2.8871109709        1.8345026391        1.0698825604
 O          3.5190471909        2.7066183998       -1.1403062694
 C          5.1541332508        0.9801897393       -0.0101960999
 C          5.7142762309        0.9164681888        1.2505133900
 C          7.0099414308        0.4417484387        1.3848924598
 C          7.7186116208        0.0425219190        0.2621509797
 C          7.1426210308        0.1157386795       -0.9975387603
 C          5.8483674208        0.5898723096       -1.1387377001
 H          5.3649759308        0.6657009599       -2.0983768501
 H          7.6969747807       -0.1952496803       -1.8683085004
 H          8.7258907008       -0.3277969611        0.3695243795
 H          7.4593223709        0.3846872684        2.3633333098
 H          5.1228513009        1.2326983186        2.0951712301
 H          2.1381403408        0.7251269301       -1.7794826800
 H          3.7670839907       -1.0043162409        0.9647248295
 H          2.5998598307       -2.7083087113        2.3224107189
 H          0.2461984906       -3.2677187510        1.8547510388
 C         -1.3694898794       -2.2447420003       -0.0681673208
 H         -1.6681899794       -3.0427896305        0.6244407790
 C         -1.5686790794       -2.7434865198       -1.4861732510
 C         -1.1705652395       -4.1471999197       -1.8245148614
 C         -2.6207094095       -3.7746992296       -1.7565614613
 H         -3.1829577195       -3.7079027893       -2.6759112012
 H         -3.2002944095       -4.1292155999       -0.9163071414
 H         -0.7672296296       -4.7572182200       -1.0304913216
 H         -0.7340030496       -4.3389368694       -2.7925346915
 H         -1.4190362994       -1.9808516196       -2.2385698207
 O         -1.8399336693        0.2199582903       -1.6851729800
