  62
        -98.93903447
 C         -2.4381183424       -0.8726677970        0.8251965095
 C         -3.3124013740       -0.6151958727       -0.2593266576
 C         -4.1193470777        0.6077673620       -0.1486351015
 C         -3.9858726473        1.4079254636        0.9241716255
 C         -4.7604386776        2.6698430687        1.1920621252
 C         -4.1899338347        3.9152530643        0.4998674978
 C         -4.4002495811        3.9724183152       -1.0136976432
 H         -5.4544447515        3.8093330734       -1.2396155386
 H         -4.1517850999        4.9862553231       -1.3336932832
 C         -3.5415931114        2.9796807794       -1.8100276852
 H         -3.0897333377        3.4904839882       -2.6633247217
 H         -2.7216910009        2.6203728146       -1.1835011341
 C         -4.3077266577        1.7754951465       -2.3575331787
 H         -3.5963845507        1.1195799712       -2.8661642896
 H         -5.0420170629        2.1115259155       -3.0930926361
 C         -5.0323085057        0.9487749751       -1.2875135024
 H         -5.9085541533        1.4862418065       -0.9255617224
 H         -5.3589246301        0.0109088893       -1.7432986554
 H         -4.6757553393        4.7862511746        0.9456801809
 H         -3.1222305859        3.9800666154        0.7214480605
 H         -5.7998183330        2.5305257755        0.8935128362
 H         -4.7272766772        2.8307807672        2.2717543567
 O         -3.1118268986        1.1394987777        1.9310434919
 C         -2.3070482840        0.0141808886        1.8951966816
 O         -1.5255206143       -0.0866701067        2.8642084876
 H          0.5331732445       -0.4908739075        1.0357854141
 C          0.5548387258       -1.0202943761        0.0909093908
 C         -0.4602603512       -1.9278919926       -0.1898573158
 C         -0.4324163238       -2.6038341595       -1.4016135933
 C          0.5853326225       -2.3644823744       -2.3098669522
 C          1.5906184424       -1.4576063576       -2.0303650403
 C          1.5744713165       -0.7793197722       -0.8174765274
 N          2.5901397972        0.1530313956       -0.5251785431
 S          4.1757038950       -0.3547025192       -0.8263619469
 O          4.4575265651       -0.1552370839       -2.2258763524
 O          4.3673142524       -1.6993394960       -0.3304947234
 C          5.1114339466        0.8065620225        0.1479766363
 C          5.5233144411        0.4445697008        1.4164391157
 C          6.2376206000        1.3582970519        2.1752831057
 C          6.5232536139        2.6122839084        1.6565532854
 C          6.1019449423        2.9612363388        0.3819313391
 C          5.3883733509        2.0521222954       -0.3826807736
 H          5.0493072286        2.2753334575       -1.3807538031
 H          6.3280983838        3.9364610540       -0.0180027863
 H          7.0803484342        3.3208252652        2.2489204334
 H          6.5685669323        1.0887773790        3.1653720001
 H          5.2872663844       -0.5444607654        1.7756314555
 H          2.5045275840        0.5146852679        0.4154530473
 H          2.3921719504       -1.2722519176       -2.7271985393
 H          0.5958930510       -2.8935876039       -3.2510440024
 H         -1.2127206509       -3.3069933424       -1.6405448956
 C         -1.5476269919       -2.1053434016        0.8430426861
 H         -1.0672876337       -2.1121313808        1.8315178874
 C         -2.3457999720       -3.3813057882        0.6860018224
 C         -1.7203465927       -4.6877582861        1.0689289051
 C         -2.8126625544       -4.1037303552        1.9123429741
 H         -3.7851261699       -4.5723309231        1.8946875384
 H         -2.5489689744       -3.6828401137        2.8719081417
 H         -0.7119977350       -4.6630934038        1.4543947587
 H         -1.9413685397       -5.5603468429        0.4735352159
 H         -3.0149089244       -3.3663479925       -0.1647817938
 O         -3.4310914446       -1.3618025534       -1.2643889634
