  62
        -98.94445815
 C         -2.6508191184       -1.3018934149        0.1165051507
 C         -2.5755694392       -0.2949586196       -0.8762177883
 C         -3.5813721917        0.7740969829       -0.7816636273
 C         -4.5008779764        0.7346854482        0.1993911045
 C         -5.5439565561        1.7854683780        0.4434050611
 C         -5.0362983106        2.8524014549        1.4234109414
 C         -3.6545190951        3.4058244250        1.0741770081
 H         -3.4142814003        4.1726619006        1.8138232496
 H         -2.9110038124        2.6124658146        1.1835158983
 C         -3.5483304809        4.0052611008       -0.3350017140
 H         -3.0118022287        4.9542916855       -0.2720000834
 H         -4.5447912194        4.2208144684       -0.7225107684
 C         -2.7920922869        3.1348347480       -1.3407929893
 H         -1.8261102683        2.8407080639       -0.9200837718
 H         -2.5878137635        3.7405116174       -2.2281274920
 C         -3.5222376429        1.8694091419       -1.8088217824
 H         -4.5247323012        2.1300461075       -2.1543696192
 H         -2.9626710463        1.4584373624       -2.6543656599
 H         -4.9845642403        2.4099689056        2.4207815799
 H         -5.7601401606        3.6687881975        1.4504278561
 H         -6.4248340008        1.3028819809        0.8699189412
 H         -5.8165129769        2.2469021079       -0.5035823631
 O         -4.5524600858       -0.2576326313        1.1236693933
 C         -3.6224099427       -1.2820347926        1.1203607831
 O         -3.7661278008       -2.1079582370        2.0434846978
 O         -1.7230504840       -0.2808213337       -1.8037351361
 C         -1.6425535100       -2.4399643361        0.1663415252
 C         -0.2999399148       -1.8514872431        0.5250642197
 C         -0.0252684469       -1.5567983556        1.8579375679
 C          1.1647225487       -0.9522251799        2.2157023486
 C          2.1016134416       -0.6187545050        1.2522600053
 C          1.8284741759       -0.8913871401       -0.0806884935
 C          0.6417237942       -1.5204826334       -0.4357013650
 H          0.4375883842       -1.7148451362       -1.4764345857
 N          2.7664579402       -0.5463922751       -1.0681264087
 S          3.4673547767        0.9769753228       -1.0067790377
 O          2.6016368792        1.9463699026       -0.3759780152
 O          3.8722495172        1.2621548194       -2.3662377348
 C          4.9263376135        0.7222400907       -0.0159468865
 C          5.7761990968       -0.3105963383       -0.3607169953
 C          6.9209141860       -0.5153361095        0.3926901313
 C          7.1975958176        0.3134006447        1.4698940518
 C          6.3367655736        1.3484331762        1.8008685439
 C          5.1890864446        1.5577475032        1.0517946435
 H          4.4876737736        2.3457649431        1.2761039654
 H          6.5533223048        1.9922605244        2.6381732714
 H          8.0889847852        0.1515331595        2.0551768873
 H          7.5922983773       -1.3196846025        0.1387082570
 H          5.5262998852       -0.9306053830       -1.2052537839
 H          2.4572871990       -0.7584315693       -2.0061181853
 H          3.0260377361       -0.1351154822        1.5226685878
 H          1.3659802321       -0.7347951825        3.2537500351
 H         -0.7669990801       -1.7971353923        2.6074153550
 H         -1.9620778636       -3.0875869099        0.9933955843
 C         -1.6394432659       -3.2512881718       -1.1120841969
 C         -0.9801089928       -4.5967807017       -1.1222400985
 C         -2.4734119227       -4.4930525358       -1.1901591914
 H         -2.9657953173       -4.7237270022       -2.1230094532
 H         -3.0467067597       -4.7652644152       -0.3159847691
 H         -0.4453824612       -4.9035950617       -2.0081072039
 H         -0.5376942553       -4.9395272672       -0.1991744848
 H         -1.5744192073       -2.6454720428       -2.0071942165
