  62
        -98.93201474
 C         -2.1997991201       -1.0266442876       -0.4121383230
 C         -3.5844505047       -1.1019308504       -0.1161551380
 C         -4.3965704999        0.1108485775       -0.3321476297
 C         -3.7826312950        1.2276273953       -0.7635842217
 C         -4.3798631573        2.5875053286       -1.0100869607
 C         -4.6557404946        3.3564012081        0.2917969238
 C         -5.3086566288        2.5322814036        1.3983646079
 H         -5.3554913594        3.1578869668        2.2937504877
 H         -4.6691398573        1.6796039399        1.6346459097
 C         -6.7226338225        2.0409425080        1.0968861346
 H         -7.3645288867        2.9010052343        0.8935799996
 H         -7.0958084967        1.5552138679        2.0021506730
 C         -6.8554677850        1.0498769018       -0.0616137014
 H         -6.8091332802        1.5581626701       -1.0209988484
 H         -7.8521993641        0.6041282291        0.0052848712
 C         -5.8597724384       -0.1053113655       -0.0292457579
 H         -6.1961260429       -0.8750862036       -0.7345007618
 H         -5.8968535571       -0.5838869659        0.9560343198
 H         -5.2832552170        4.2178764711        0.0572095190
 H         -3.7011357293        3.7276060886        0.6733163047
 H         -5.2834817308        2.4969943676       -1.6055131492
 H         -3.6488644945        3.1489253201       -1.5961903041
 O         -2.4428355348        1.2664734855       -1.0060774996
 C         -1.6163691081        0.1660691220       -0.8429708170
 O         -0.4249027451        0.3961738437       -1.1232924925
 O         -4.1337165559       -2.1492537407        0.3202097825
 C         -1.3705054551       -2.2748511224       -0.1585419055
 C         -0.2063159916       -1.9295247606        0.7332195139
 C         -0.4000518225       -1.8334591005        2.1078258470
 C          0.6347216760       -1.4514725646        2.9413505976
 C          1.8786051726       -1.1435405177        2.4191930675
 C          2.0759030940       -1.2222526262        1.0474656000
 C          1.0438174464       -1.6338914009        0.2145681515
 H          1.2021703576       -1.6803850757       -0.8514867732
 N          3.3326384315       -0.8940865812        0.5040714898
 S          4.0986424990        0.4705836238        1.1422750435
 O          4.8458679707        0.0614556539        2.3073728044
 O          3.1493730367        1.5399041181        1.3536469191
 C          5.2209298511        0.8855113632       -0.1781799463
 C          6.5232172776        0.4262537911       -0.1363761770
 C          7.3771206360        0.7397125497       -1.1822315130
 C          6.9164100928        1.5008168276       -2.2459156615
 C          5.6055110288        1.9536201480       -2.2742807796
 C          4.7460134477        1.6434425964       -1.2323144983
 H          3.7210905819        1.9807896393       -1.2103788498
 H          5.2492274406        2.5458770023       -3.1018539157
 H          7.5824686762        1.7457048846       -3.0581090711
 H          8.3969593998        0.3908963118       -1.1639287659
 H          6.8364375714       -0.1555955533        0.7146488757
 H          3.2924499797       -0.8376487144       -0.5049088113
 H          2.6901573427       -0.8207836787        3.0519137146
 H          0.4713719144       -1.3826712409        4.0065950552
 H         -1.3781474270       -2.0495332177        2.5155877013
 H         -2.0472821603       -2.9368833271        0.4050375906
 C         -0.9566881916       -3.0425194657       -1.4049636777
 C         -1.9205651021       -3.2184193643       -2.5393532329
 C         -0.6836785185       -2.3948679078       -2.7278270062
 H          0.1117639208       -2.8014399822       -3.3356200627
 H         -0.7824726478       -1.3235109620       -2.8001265444
 H         -1.9806158029       -4.1812653821       -3.0236652143
 H         -2.8679390798       -2.7042849115       -2.4658275314
 H         -0.3434600743       -3.9029963920       -1.1540581361
