  62
        -98.94290923
 C          2.6911890491        1.2237636842        0.1406731959
 C          2.6452430392        0.2536534386       -0.8893120044
 C          3.7698914919       -0.6925913487       -0.9250975003
 C          4.7596161734       -0.5773504967       -0.0210587183
 C          5.9270643905       -1.5129815689        0.0960496114
 C          5.6206349399       -2.6605725760        1.0689615812
 C          4.2811321309       -3.3505741851        0.8100526331
 H          4.1868789646       -4.1596053468        1.5376558810
 H          3.4709761674       -2.6448795374        1.0083533239
 C          4.1222581677       -3.9171913718       -0.6077447891
 H          5.1004216745       -4.0103050130       -1.0810121181
 H          3.6990059477       -4.9213815598       -0.5378124242
 C          3.1957409565       -3.1055866744       -1.5150305326
 H          2.2446983333       -2.9294373015       -1.0058090058
 H          2.9845652388       -3.7023683247       -2.4063425491
 C          3.7444560206       -1.7538432192       -1.9887295103
 H          4.7369598763       -1.8901378482       -2.4228022735
 H          3.0754740309       -1.3790958582       -2.7689161822
 H          6.4276019159       -3.3926936871        1.0039748597
 H          5.6075597926       -2.2586377378        2.0847511435
 H          6.1679446218       -1.9109314631       -0.8876990508
 H          6.7837580277       -0.9500759583        0.4703378876
 O          4.7818872263        0.3863812587        0.9353537534
 C          3.7444276523        1.2960390340        1.0524648037
 O          3.8731078655        2.1068935069        1.9922173189
 H         -0.8045591640        2.1413532109       -1.1484114305
 C         -0.8282041778        1.5254361762       -0.2632731516
 C          0.2774821820        1.4655666850        0.5678857425
 C          0.2131665449        0.6618135489        1.7039996461
 C         -0.9227553724       -0.0697820709        1.9888241044
 C         -2.0187861246       -0.0235788851        1.1438276405
 C         -1.9688436969        0.7792145954        0.0134727536
 N         -3.0624761516        0.8147555806       -0.8622680316
 S         -4.6239455390        0.8690134346       -0.2661566928
 O         -5.4181292112        1.4068786335       -1.3490105954
 O         -4.6901373644        1.5800737635        0.9896468910
 C         -5.0568268797       -0.8412764895       -0.0231405112
 C         -5.6271125341       -1.2409042277        1.1695972436
 C         -5.9732941622       -2.5730596812        1.3344795675
 C         -5.7455201977       -3.4770972422        0.3084210634
 C         -5.1739779410       -3.0593720889       -0.8842952163
 C         -4.8271036336       -1.7288394004       -1.0560694240
 H         -4.3805676109       -1.3671927537       -1.9673323034
 H         -4.9967630917       -3.7654549803       -1.6796193778
 H         -6.0141771294       -4.5134858237        0.4390139706
 H         -6.4174895496       -2.8997857975        2.2609941953
 H         -5.7788715255       -0.5047515266        1.9429928733
 H         -2.9396910063        1.4150319620       -1.6637825748
 H         -2.9058257469       -0.5970720625        1.3573104366
 H         -0.9561883592       -0.6879958898        2.8732624318
 H          1.0732935503        0.6195350914        2.3591233628
 C          1.5559912047        2.2213445818        0.2970748828
 H          1.7945200047        2.8155875607        1.1906352663
 C          1.4900406617        3.1471183954       -0.8986217393
 C          0.8313237008        4.4869828987       -0.7707984831
 C          2.3216757122        4.3928570686       -0.8976132724
 H          2.7819471147        4.7061422455       -1.8226744154
 H          2.9250851491        4.5869864397       -0.0227570153
 H          0.4192852087        4.7510676692        0.1916317924
 H          0.2693860544        4.8703100067       -1.6093720204
 H          1.3932316887        2.6153052139       -1.8379455684
 O          1.7172423886        0.1774382928       -1.7359894424
