  62
        -98.93843648
 C         -2.6057576392       -0.1084112055       -0.4997929428
 C         -2.1854817723       -0.7087786142        0.7109909212
 C         -1.6902523875       -2.0872728457        0.6047296667
 C         -1.6431928518       -2.6870927830       -0.5982286271
 C         -1.1537983262       -4.0814241838       -0.8844523245
 C          0.3510074392       -4.3091227617       -0.6388728524
 C          0.6775976138       -4.9139374253        0.7323027289
 H         -0.2004739037       -5.4471816504        1.0990085464
 H          1.4684618721       -5.6566413675        0.6095614070
 C          1.1547640577       -3.9246487020        1.8005933407
 H          1.0893852475       -4.4217881713        2.7713007157
 H          2.2054092186       -3.6834097819        1.6226946000
 C          0.3970883584       -2.5983799698        1.8725916409
 H          0.7029655641       -1.9505078547        1.0470515163
 H          0.7045694915       -2.0754304630        2.7811415163
 C         -1.1387215686       -2.7266256038        1.8454700263
 H         -1.4399000529       -3.7717269988        1.9080178817
 H         -1.5688562893       -2.1886698769        2.6929651261
 H          0.7017201078       -4.9969992844       -1.4099534377
 H          0.8829104382       -3.3667470560       -0.7767275042
 H         -1.7344119886       -4.7912256662       -0.2913285452
 H         -1.3777632956       -4.2609344436       -1.9377976918
 O         -2.0728754778       -2.0793956512       -1.7376258510
 C         -2.5335775653       -0.7744847806       -1.7214454602
 O         -2.8528100290       -0.3262084982       -2.8431648038
 O         -2.2248320454       -0.1238237459        1.8263969865
 C         -3.0559364019        1.3404514313       -0.5096463941
 C         -1.9499808978        2.2211605796        0.0234148761
 C         -2.1831349169        3.3370084559        0.8172357910
 C         -1.1244205535        4.0965073333        1.2846180944
 C          0.1811737826        3.7506474327        0.9889306356
 C          0.4248364544        2.6429328149        0.1852971092
 C         -0.6385683250        1.9078699545       -0.3104437788
 H         -0.4387000573        1.0514289096       -0.9373904169
 N          1.7431662784        2.2604179233       -0.1508821314
 S          2.1753833926        0.6587726981        0.1887994512
 O          1.4617651291       -0.2376414966       -0.6849963106
 O          2.0582079721        0.4160422863        1.6097221189
 C          3.8964038486        0.7003535034       -0.2756354752
 C          4.2115955204        0.6990606058       -1.6208980755
 C          5.5439892563        0.7587801783       -1.9969404420
 C          6.5334258635        0.8190842323       -1.0264613858
 C          6.2017636176        0.8175289577        0.3198097641
 C          4.8705051758        0.7594525525        0.7023304926
 H          4.5643060033        0.7482828597        1.7360236168
 H          6.9729952077        0.8614503741        1.0717757715
 H          7.5695733009        0.8649371892       -1.3222669000
 H          5.8050494926        0.7575545980       -3.0429453392
 H          3.4089653473        0.6422276736       -2.3379665771
 H          2.4226448043        2.8650923553        0.2958592064
 H          1.0064290403        4.3292255816        1.3767905335
 H         -1.3186931842        4.9595195425        1.9033899900
 H         -3.1937282287        3.6065210602        1.0777913197
 H         -3.2218469921        1.6005669956       -1.5661703390
 C         -4.3615273042        1.4977268711        0.2428694652
 C         -5.3605366582        2.5328503192       -0.1769958346
 C         -5.6343146109        1.0816326231       -0.4293665368
 H         -6.3907009642        0.5859187472        0.1601597843
 H         -5.5583955031        0.7126897537       -1.4421257723
 H         -5.9349778330        3.0343666658        0.5872714257
 H         -5.1119250070        3.1537077630       -1.0244589674
 H         -4.2579830994        1.2795578865        1.2996363827
