  62
        -98.93859983
 C          1.9451211396        1.3008670811       -0.0027048802
 C          2.5468454698        0.5696492712        1.0459777898
 C          3.8161806199       -0.1192379685        0.7431259198
 C          4.3105584999       -0.0402353283       -0.5065714302
 C          5.5616932801       -0.6730448280       -1.0554994202
 C          5.3989996905       -2.1777464580       -1.3239784603
 C          4.6817678507       -2.9529316682       -0.2219004504
 H          4.5311460009       -3.9752655583       -0.5790298804
 H          3.6929425206       -2.5179693285       -0.0637785204
 C          5.4245416807       -3.0281646281        1.1100909596
 H          6.3966840408       -3.5001425579        0.9511010296
 H          4.8439300808       -3.6795930383        1.7685380896
 C          5.6432283103       -1.6967468281        1.8318809497
 H          6.4573227602       -1.1354349779        1.3814569197
 H          5.9556129004       -1.9294660381        2.8541843797
 C          4.3993264701       -0.8211047684        1.9462856597
 H          4.5969779999       -0.0307926184        2.6806649598
 H          3.5832135702       -1.4137666987        2.3756046297
 H          6.3880524006       -2.6078676077       -1.4902768203
 H          4.8204792205       -2.2960484281       -2.2435013303
 H          6.3973426300       -0.4865764378       -0.3874745602
 H          5.7751483300       -0.1729715879       -2.0027689702
 O          3.6696339698        0.6380173316       -1.5005018302
 C          2.4837373796        1.3176654713       -1.2889049902
 O          2.0272148295        1.8821396612       -2.3001231601
 O          2.0433869498        0.4868031610        2.2005364398
 C          0.6540193194        2.0510046207        0.2767566998
 C         -0.4778024604        1.3926466705       -0.4726851402
 C         -1.2360676106        2.0279490404       -1.4459165902
 C         -2.2459743504        1.3445247301       -2.1028795902
 C         -2.5297930101        0.0272336401       -1.7955398903
 C         -1.7879900999       -0.6122734298       -0.8089968003
 C         -0.7742078301        0.0711580304       -0.1569666103
 H         -0.1922359900       -0.4273958595        0.6081581097
 N         -2.0911128096       -1.9418082699       -0.4679312404
 S         -3.7055957295       -2.3284463503       -0.2466094805
 O         -3.7090802092       -3.4194394204        0.7029157595
 O         -4.3162564194       -2.6065191804       -1.5227788705
 C         -4.4440429199       -0.8693854805        0.4686354496
 C         -3.9369605200       -0.4014106305        1.6648480497
 C         -4.4742414303        0.7505272093        2.2154843597
 C         -5.5049404904        1.4113560991        1.5645458997
 C         -6.0078823903        0.9248515591        0.3681698897
 C         -5.4723200100       -0.2255258308       -0.1887572504
 H         -5.8294946799       -0.6357086608       -1.1192813904
 H         -6.8107896104        1.4393775389       -0.1345484503
 H         -5.9176524707        2.3103876490        1.9942506298
 H         -4.0838747504        1.1295161894        3.1464407597
 H         -3.1374957299       -0.9389289003        2.1496333996
 H         -1.5197492595       -2.3138715598        0.2761840096
 H         -3.3057422999       -0.5200212301       -2.3059312503
 H         -2.8196036405        1.8461313100       -2.8670273002
 H         -1.0287961308        3.0535237504       -1.7011346801
 H          0.4693095794        1.9125690506        1.3519755598
 C          0.8048140990        3.5297656008       -0.0043476401
 C         -0.1196240512        4.5082553805        0.6543207700
 C          1.3138945088        4.4266710508        1.0826177000
 H          1.9813231886        5.2320325710        0.8148754900
 H          1.5395601289        3.9741341708        2.0373254400
 H         -0.4380811214        5.3742290905        0.0944826100
 H         -0.8708739711        4.1124162403        1.3205409399
 H          1.1358775490        3.7360181109       -1.0152499501
