  62
        -98.93418991
 C         -1.9931652397       -0.0480496014       -0.4833150909
 C         -2.7856488400        0.6492796790        0.4591892186
 C         -4.1246185299        0.0851627788        0.7273953588
 C         -4.4939034195       -1.0574665417        0.1256915095
 C         -5.8163805193       -1.7644282720        0.2344486798
 C         -6.7547601793       -1.3376836730       -0.9069544005
 C         -7.5805787597       -0.0827146330       -0.6260604814
 H         -8.0912676797        0.1845143462       -1.5541599917
 H         -8.3487662297       -0.3175155028        0.1137747486
 C         -6.7844289301        1.1296667875       -0.1357116621
 H         -5.8649594301        1.2252133774       -0.7160794421
 H         -7.3825462203        2.0223551972       -0.3289930428
 C         -6.4541489702        1.0691095586        1.3631711379
 H         -6.7545177206        2.0062950288        1.8363143373
 H         -7.0521690401        0.2844527387        1.8265124784
 C         -4.9708647102        0.8565309092        1.7033920882
 H         -4.4746513905        1.8281161994        1.7917701377
 H         -4.8954406802        0.3782237199        2.6855529685
 H         -7.4453881090       -2.1566795733       -1.1181451301
 H         -6.1454770692       -1.1860055834       -1.8018174606
 H         -5.6083562090       -2.8317272120        0.1330955206
 H         -6.2704889795       -1.5865948715        1.2047597997
 O         -3.6827085792       -1.7208530220       -0.7443791900
 C         -2.4341723593       -1.2341817919       -1.0757357801
 O         -1.8134001790       -1.9321977822       -1.9038001696
 H          1.5852590007       -1.0150923910       -1.5874917998
 C          1.5183459705       -0.8666590904       -0.5180683499
 C          0.4417215103       -0.1681925403        0.0077804695
 C          0.3634689501       -0.0002558195        1.3868419694
 C          1.3372685401       -0.5286889986        2.2144738198
 C          2.4094802904       -1.2268638787        1.6863137504
 C          2.4990969506       -1.3946219796        0.3114301105
 N          3.6127362808       -2.0708096096       -0.2283825589
 S          5.1031431006       -1.3778016889        0.1161946808
 O          5.9986304208       -1.8536345894       -0.9134209688
 O          5.4699156305       -1.6892819079        1.4738086110
 C          4.8063617501        0.3717958509       -0.0583940504
 C          4.7524760401        0.9002328300       -1.3331302507
 C          4.4196644797        2.2355649098       -1.4919954416
 C          4.1330848194        3.0122178205       -0.3796085722
 C          4.1946064194        2.4674644813        0.8932319782
 C          4.5341762598        1.1342671215        1.0594759991
 H          4.5958773198        0.6749266122        2.0320540694
 H          3.9719469591        3.0743116718        1.7560295178
 H          3.8570283991        4.0466880603       -0.5066033929
 H          4.3751954197        2.6641772892       -2.4803959019
 H          4.9820573904        0.2637754795       -2.1730375103
 H          3.5330425110       -2.2404604003       -1.2211163688
 H          3.1813779904       -1.6399814181        2.3155365308
 H          1.2619375400       -0.3950567180        3.2829941297
 H         -0.4660042801        0.5540461306        1.7987069389
 C         -0.6066430598        0.4068247088       -0.9086331810
 H         -0.4557110696       -0.0412408618       -1.9035185907
 C         -0.4872746202        1.9173013187       -1.0689827920
 C          0.4075110895        2.7732695395       -0.2281480524
 C          0.7648210097        2.4994305687       -1.6556791222
 H          0.6763062495        3.2956581182       -2.3787897027
 H          1.5853527999        1.8216855488       -1.8394371117
 H          0.0461961191        3.7539085596        0.0402359169
 H          0.9965574695        2.2998525202        0.5413238280
 H         -1.4238339103        2.3663556982       -1.3814790924
 O         -2.4194535304        1.6945774495        1.0539923980
