  62
        -98.94418671
 C         -1.6054040321       -1.4560878286        0.3871887650
 C         -1.7540689398       -0.2474936298        1.1184531636
 C         -3.0172477238        0.4786788264        0.9370732861
 C         -3.9670842411       -0.0488017298        0.1442061164
 C         -5.2926101995        0.5893992702       -0.1529135457
 C         -5.2231586973        1.4639926404       -1.4123920787
 C         -4.0421505131        2.4343315247       -1.4254700142
 H         -3.1128710573        1.8627235956       -1.4832754013
 H         -4.1155346429        3.0223746159       -2.3427886877
 C         -3.9821748315        3.3778175498       -0.2160751354
 H         -3.7631399422        4.3869928028       -0.5709385866
 H         -4.9547514463        3.4128433217        0.2760660045
 C         -2.9041001384        3.0213066817        0.8092119523
 H         -1.9518135342        2.8729515308        0.2949265390
 H         -2.7878629708        3.8697419574        1.4889190374
 C         -3.1835719009        1.7811172811        1.6680811177
 H         -4.1806627763        1.8527535420        2.1075553613
 H         -2.4528040299        1.7622523733        2.4820355427
 H         -5.1391688740        0.8102618554       -2.2836159766
 H         -6.1574599766        2.0222809291       -1.4960066048
 H         -6.0263581566       -0.2027889655       -0.3117085054
 H         -5.6002971879        1.1883967391        0.7021217939
 O         -3.8044431752       -1.2210761695       -0.5157283177
 C         -2.6191578583       -1.9408059445       -0.4400496747
 O         -2.6234791392       -2.9681426476       -1.1463742526
 O         -0.8698801677        0.1989146041        1.8965955331
 C         -0.2873413338       -2.1902724857        0.5625714875
 C          0.6868415427       -1.8606474257       -0.5438176179
 C          0.3889753129       -2.1241991979       -1.8768756438
 C          1.3054569700       -1.8259810670       -2.8682682651
 C          2.5277433397       -1.2578036325       -2.5541566341
 C          2.8374105409       -0.9949818431       -1.2247375124
 C          1.9160717080       -1.2987824165       -0.2310843911
 H          2.1720508390       -1.0988900495        0.7976588237
 N          4.0808670642       -0.4501261040       -0.8802297194
 S          4.2637728126        0.5849861366        0.4169379319
 O          5.5508580866        1.2051609181        0.1883099384
 O          4.1237018705       -0.1406654302        1.6539141681
 C          2.9743346207        1.8039310299        0.2484055068
 C          1.9378774871        1.8530768249        1.1560355672
 C          0.9481159987        2.8091214127        0.9930683865
 C          1.0083115623        3.6912196892       -0.0735581568
 C          2.0593668218        3.6317540629       -0.9773349538
 C          3.0527496647        2.6807782975       -0.8170588578
 H          3.8930020571        2.6164159914       -1.4892132687
 H          2.1047632686        4.3230140001       -1.8035575285
 H          0.2338402795        4.4320644735       -0.1989852003
 H          0.1310700646        2.8374958262        1.6956326691
 H          1.9032063126        1.1494713782        1.9715238654
 H          4.6629643262       -0.1850697114       -1.6604974724
 H          3.2412805320       -1.0271471826       -3.3302889620
 H          1.0643106266       -2.0359060293       -3.8994349434
 H         -0.5651259198       -2.5629577200       -2.1255050952
 H          0.1361322845       -1.8003103422        1.4986205909
 C         -0.4331738955       -3.6935065048        0.6998525331
 C          0.6693815695       -4.4687377715        1.3539493683
 C         -0.6422030469       -4.2904877647        2.0573629048
 H         -1.3003223413       -5.1413907152        2.1496298957
 H         -0.6805158719       -3.6162370641        2.9008051740
 H          0.9148372615       -5.4442443700        0.9630972368
 H          1.5219050920       -3.9158055589        1.7202490056
 H         -0.9497367772       -4.1550709430       -0.1313009248
