  62
        -98.94946620
 C         -2.0473738976       -0.3706193907       -0.3174705042
 C         -1.3899950962       -1.2965852289       -1.1603083841
 C         -1.0288571408       -2.5795592356       -0.5465978598
 C         -1.2845017456       -2.7881479247        0.7578914005
 C         -0.9788660967       -4.0425588939        1.5308979916
 C          0.4698045396       -4.1219698382        2.0317416530
 C          1.5088618818       -4.4511507700        0.9593775418
 H          2.4332196961       -4.7111063995        1.4791796604
 H          1.1881405731       -5.3317259921        0.4008229801
 C          1.7997022136       -3.2976561411       -0.0105442580
 H          1.4595408819       -2.3588323454        0.4346960735
 H          2.8800117591       -3.2044791709       -0.1501169477
 C          1.1776891287       -3.4656677896       -1.3968338460
 H          1.6080395721       -4.3443977811       -1.8829847851
 H          1.4379725121       -2.5915339695       -1.9972865849
 C         -0.3497358357       -3.6102904731       -1.3998072100
 H         -0.7030389751       -3.4718315155       -2.4250062061
 H         -0.6296738852       -4.6100461116       -1.0672682016
 H          0.5091653408       -4.8992156489        2.7988719698
 H          0.7282662223       -3.1707638680        2.5046559057
 H         -1.2037545499       -4.9179350252        0.9202814888
 H         -1.6440399392       -4.0416214713        2.3971966964
 O         -1.8929629954       -1.8615272685        1.5434019115
 C         -2.2792059721       -0.6323023553        1.0333064640
 O         -2.8247687074        0.1190023811        1.8651633219
 O         -1.1194099766       -1.0645799715       -2.3703976251
 C         -2.4498788824        0.9872495758       -0.8690932425
 C         -1.7845926028        2.0644414012       -0.0479814644
 C         -2.4437198791        3.1654785668        0.4801769573
 C         -1.7642013982        4.0561617992        1.2945382029
 C         -0.4330346515        3.8602781577        1.6116130185
 C          0.2416441438        2.7707241404        1.0687845568
 C         -0.4295810944        1.9126636497        0.2166717143
 H          0.0899905060        1.0662330264       -0.2006841018
 N          1.5920501993        2.5420985911        1.3581305051
 S          2.3126233420        1.0375333219        1.2386022607
 O          1.3937779377       -0.0472900083        1.4892273363
 O          3.4507689679        1.1264185136        2.1296926823
 C          2.9083285413        1.0168337467       -0.4399152689
 C          2.3065937511        0.2293947794       -1.3990695478
 C          2.7866751901        0.2666977653       -2.6990354925
 C          3.8582820874        1.0858730718       -3.0166367122
 C          4.4579575948        1.8682433614       -2.0406530051
 C          3.9795323499        1.8364077240       -0.7414896977
 H          4.4211839913        2.4197635519        0.0491375296
 H          5.2933117719        2.5025109861       -2.2897695103
 H          4.2272644253        1.1118760275       -4.0297610738
 H          2.3107635684       -0.3408408059       -3.4528226330
 H          1.4728662757       -0.4001126735       -1.1285200091
 H          1.9790691227        3.1004599614        2.1032535497
 H          0.0807227603        4.5359269031        2.2782840554
 H         -2.2878003308        4.9043045713        1.7094176124
 H         -3.4908265793        3.3166026696        0.2751045624
 H         -2.0479499066        1.0233721093       -1.8925847406
 C         -3.9572020584        1.1134385814       -0.9295035863
 C         -4.6003494819        2.0043821260       -1.9489956953
 C         -4.6890166028        0.5155811173       -2.0923251937
 H         -5.6375832040        0.0328500700       -1.9110438242
 H         -4.0949696503        0.0364018277       -2.8566825538
 H         -5.4927121666        2.5448294817       -1.6715421193
 H         -3.9508774034        2.5401982489       -2.6243359480
 H         -4.4188854090        1.0327865278        0.0485355181
