  62
        -98.94300628
 C         -0.8450269420       -1.7550374040        0.0541074087
 C         -1.7514780567       -1.2138477920        0.9976759016
 C         -2.9837543167       -0.6393989349        0.4448611980
 C         -3.1598419724       -0.5985940868       -0.8888231465
 C         -4.3904209501       -0.1133871617       -1.6076593660
 C         -4.4814803399        1.4090517132       -1.7748783517
 C         -4.8171228823        2.1828747577       -0.4998736103
 H         -5.0842928623        3.1975291492       -0.8010878116
 H         -5.6962232605        1.7425786915       -0.0284467116
 C         -3.6644861214        2.2555075937        0.5102444727
 H         -3.5711731876        3.2794730864        0.8769051962
 H         -2.7278152620        2.0012198757        0.0098811601
 C         -3.8256721061        1.3543936615        1.7334798274
 H         -2.9277107570        1.4463182720        2.3497939836
 H         -4.6785919132        1.6884535196        2.3287760384
 C         -4.0190248251       -0.1296864891        1.4028550273
 H         -3.9185988548       -0.7020201056        2.3287205854
 H         -5.0178479308       -0.2960687011        0.9984634984
 H         -3.5375243203        1.7731621197       -2.1858134442
 H         -5.2639320495        1.6063733861       -2.5112148140
 H         -5.2783495817       -0.4747090226       -1.0867556108
 H         -4.3635021332       -0.5679550062       -2.6003695698
 O         -2.2235820494       -1.0531888358       -1.7642813935
 C         -1.0670469317       -1.6797324122       -1.3204454266
 O         -0.3388739475       -2.1147051214       -2.2320595347
 O         -1.5546937521       -1.2368897522        2.2426228561
 C          0.3562249509       -2.5323212997        0.5605385968
 C          1.6287061996       -2.1497730226       -0.1513502605
 C          2.4645003823       -3.0851675745       -0.7486058830
 C          3.6334633590       -2.6880316199       -1.3720106060
 C          4.0063571295       -1.3582758030       -1.3881514467
 C          3.1847072059       -0.4133395382       -0.7833588803
 C          2.0018057529       -0.8104122262       -0.1805621821
 H          1.3640211566       -0.0698072095        0.2829976796
 N          3.5469029647        0.9422223935       -0.7908563938
 S          3.2794230033        1.9048275903        0.5478874596
 O          4.2968400244        2.9326244701        0.4636694009
 O          3.2560913996        1.1356743870        1.7693582961
 C          1.7020153501        2.6678715698        0.2486799024
 C          1.4698587373        3.2220376198       -0.9946262614
 C          0.2780813372        3.8924046202       -1.2166792644
 C         -0.6506733949        4.0071616597       -0.1936061676
 C         -0.4034193576        3.4429937158        1.0482813936
 C          0.7832042884        2.7638256595        1.2738391111
 H          1.0106692536        2.3037160170        2.2228149056
 H         -1.1279179712        3.5277801183        1.8423098009
 H         -1.5734574676        4.5383677339       -0.3651477715
 H          0.0791114161        4.3276913979       -2.1828434980
 H          2.2200626385        3.1222048886       -1.7611868870
 H          4.4435478942        1.1347532895       -1.2134073124
 H          4.9234026081       -1.0472132144       -1.8654047808
 H          4.2667491753       -3.4254119954       -1.8415732931
 H          2.1992230304       -4.1290088554       -0.7342613533
 H          0.4641774325       -2.2540526603        1.6199331860
 C          0.0433404648       -4.0148721010        0.4829043135
 C          0.6826769824       -4.9779311697        1.4371730753
 C         -0.7713790151       -4.6427522868        1.5721479558
 H         -1.5018614925       -5.3910659883        1.3028506672
 H         -1.0802235417       -4.0053292118        2.3873906433
 H          0.9494912838       -5.9606029277        1.0783589132
 H          1.3662895787       -4.5746663825        2.1689118240
 H         -0.1454587449       -4.3471564020       -0.5327351401
