  62
        -98.93264612
 C          2.2472324383        0.9231581386       -0.2226036882
 C          3.5353916363        1.0805613149        0.3379114028
 C          4.5186014394        0.0198965253        0.0519587617
 C          4.1328606241       -1.0480627777       -0.6693872872
 C          4.9445407372       -2.2476376255       -1.0893593786
 C          5.8679308889       -2.8651370210       -0.0277868606
 C          7.3545455033       -2.6302015035       -0.3023007569
 H          7.9294075050       -3.4143485167        0.1954127505
 H          7.5292828524       -2.7300227800       -1.3755837486
 C          7.8995189036       -1.2851564697        0.1749335405
 H          7.9580328631       -1.2853587452        1.2655444399
 H          8.9193031807       -1.1883296873       -0.2049163543
 C          7.0941356812       -0.0609741307       -0.2645167099
 H          6.7680717377       -0.1693838700       -1.2982957026
 H          7.7575427687        0.8057115975       -0.2286512564
 C          5.8872635244        0.2368164853        0.6378495992
 H          5.9674317071       -0.3320507510        1.5686623953
 H          5.8978670868        1.2915088522        0.9299781078
 H          5.5999173082       -2.4919207595        0.9594115599
 H          5.6933347627       -3.9423376191       -0.0225505181
 H          4.2081475292       -2.9860054448       -1.4148668837
 H          5.5263922014       -1.9780979528       -1.9744619036
 O          2.8688590975       -1.1705395716       -1.1684138327
 C          1.9013541095       -0.2002412251       -0.9715063383
 O          0.8049255202       -0.4530383814       -1.5068500826
 O          3.8571003990        2.0722843267        1.0469744428
 C          1.2026610088        1.9959528538        0.0327655657
 C          0.0763890084        1.3935198128        0.8354508106
 C          0.3416584901        0.9665090299        2.1345910937
 C         -0.6433746669        0.3684999897        2.8955869535
 C         -1.9156783063        0.1838780577        2.3811316546
 C         -2.1891618320        0.6010457425        1.0865363415
 C         -1.1963044668        1.2064699796        0.3236528426
 H         -1.4201726699        1.5149439923       -0.6852679279
 N         -3.4833735319        0.4479933462        0.5524303121
 S         -4.3167331135       -0.9892569732        0.8513705687
 O         -4.7938513265       -0.9661600481        2.2119617410
 O         -3.5111886289       -2.1333513941        0.4853135937
 C         -5.6899925717       -0.8018788322       -0.2683231471
 C         -6.7701874738       -0.0373510083        0.1300355156
 C         -7.8280574554        0.1353815566       -0.7481365868
 C         -7.7881061709       -0.4551555298       -2.0025729539
 C         -6.6973883617       -1.2201377728       -2.3877703708
 C         -5.6350210360       -1.3957347549       -1.5147866230
 H         -4.7697438133       -1.9873828204       -1.7690947477
 H         -6.6696459286       -1.6797684999       -3.3626950241
 H         -8.6129636987       -0.3206441469       -2.6843741109
 H         -8.6787101560        0.7279258901       -0.4524693338
 H         -6.7601296177        0.3942917085        1.1170736234
 H         -3.5007286354        0.6565916134       -0.4372250206
 H         -2.6899042053       -0.2904435473        2.9617442012
 H         -0.4226008625        0.0392768765        3.9001764108
 H          1.3375563317        1.1023404234        2.5341483454
 H          1.7037653138        2.7466198846        0.6598546595
 C          0.7660038764        2.6514743822       -1.2595984489
 C          0.0975919422        3.9925243428       -1.2239262823
 C          1.4972933031        3.8662276236       -1.7435502712
 H          1.6671098433        3.9757808457       -2.8041554434
 H          2.3071197772        4.2358817909       -1.1319701378
 H         -0.6946851865        4.1940366160       -1.9287327162
 H         -0.0453629873        4.4505397554       -0.2570774370
 H          0.4425822719        1.9366427568       -2.0075575971
