  62
        -98.93687890
 C         -2.6059609121       -1.2364750974        0.1865727731
 C         -2.6824651867       -0.1873414607       -0.7564066920
 C         -3.9063085457        0.6397777845       -0.7305421376
 C         -4.8701552936        0.3442351245        0.1615164177
 C         -6.1713609396        1.0635071687        0.3982621912
 C         -5.9870459189        2.3768456928        1.1762968011
 C         -4.8111229750        3.2361237067        0.7188337868
 H         -4.7198994492        4.0722724232        1.4171892959
 H         -3.8909134831        2.6532400063        0.7907140164
 C         -4.9366840673        3.8150981184       -0.6883357666
 H         -5.8350766414        4.4342017021       -0.7417875230
 H         -4.0741427967        4.4668941128       -0.8487549389
 C         -4.9807259502        2.7969373407       -1.8294960685
 H         -4.8298181858        3.3478733028       -2.7625110259
 H         -5.9601748327        2.3318478186       -1.9018530987
 C         -3.8919884512        1.7295323821       -1.7753591420
 H         -3.8655849808        1.2105885320       -2.7412894362
 H         -2.9146617488        2.2172909279       -1.6850258530
 H         -6.9114082465        2.9525351707        1.1055829598
 H         -5.8256121546        2.1256526831        2.2274823966
 H         -6.6779797413        1.2390626481       -0.5459849313
 H         -6.7969716354        0.3931132034        0.9917053882
 O         -4.7538536208       -0.6872915053        1.0474366457
 C         -3.6344087408       -1.4931770419        1.0912693944
 O         -3.6690814745       -2.3860347299        1.9630231249
 H          1.0234157947       -2.1060031234       -1.1335493041
 C          0.9988903895       -1.4060225237       -0.3129035200
 C         -0.1417346183       -1.2908535350        0.4647493285
 C         -0.1335036731       -0.3861112991        1.5235571577
 C          0.9773495257        0.3934747491        1.7795167407
 C          2.1080312284        0.2887232529        0.9876343002
 C          2.1174005014       -0.6199184506       -0.0603833727
 N          3.2575161221       -0.7296955067       -0.8714494116
 S          4.7685351095       -0.8307992193       -0.1536163904
 O          5.6029515231       -1.4991000419       -1.1282464760
 O          4.6939810319       -1.4410094757        1.1534901298
 C          5.2922290242        0.8648371363       -0.0089301232
 C          5.3019803835        1.6437064411       -1.1493568614
 C          5.7164049209        2.9625619587       -1.0552505637
 C          6.1145387003        3.4767311053        0.1698811600
 C          6.1025927180        2.6808090666        1.3049730954
 C          5.6884222205        1.3607505240        1.2176003334
 H          5.6582096483        0.7065663599        2.0745432656
 H          6.4129573865        3.0822160634        2.2563241766
 H          6.4362457605        4.5038313038        0.2402556013
 H          5.7267906076        3.5847724274       -1.9356971870
 H          4.9880034489        1.2069179534       -2.0826565649
 H          3.1639489470       -1.3900138830       -1.6291923559
 H          2.9762857856        0.8976155293        1.1791109824
 H          0.9638335433        1.0933831188        2.6014212855
 H         -1.0169860053       -0.3020694558        2.1425693152
 C         -1.3775370597       -2.1262512615        0.2329404696
 H         -1.5107003873       -2.7820672523        1.1061092467
 C         -1.3129130074       -2.9848913940       -1.0130711915
 C         -0.6333465757       -4.3200993097       -0.9762155808
 C         -2.1271054418       -4.2410158385       -1.0674127895
 H         -2.6026721841       -4.5080715657       -1.9991991448
 H         -2.7096591189       -4.4916186563       -0.1927521367
 H         -0.1982095814       -4.6344210241       -0.0393072109
 H         -0.0852358292       -4.6467085130       -1.8475331252
 H         -1.2418470467       -2.3962933869       -1.9208025475
 O         -1.7694515200        0.0607211179       -1.5873240477
