  62
        -98.94415434
 C          1.5454642508        1.4670165392        0.4174145801
 C          1.7353521303        0.2505489690        1.1185805700
 C          2.8685247802       -0.5713457113        0.6804016101
 C          3.6314356005       -0.1618168514       -0.3493876597
 C          4.8331265804       -0.8797732017       -0.9018006996
 C          4.4924542902       -1.9833510915       -1.9127662798
 C          3.8760504097       -3.2478593814       -1.3132935200
 H          3.8902473396       -4.0109584913       -2.0939268101
 H          4.5053913994       -3.6048178417       -0.4974924300
 C          2.4336574697       -3.0755554410       -0.8167150103
 H          2.0020032100       -2.1720605908       -1.2539187403
 H          1.8269144695       -3.9160811507       -1.1597226705
 C          2.2893102594       -3.0061948911        0.7030810697
 H          1.2352706094       -2.8406305608        0.9354132495
 H          2.5915577790       -3.9584456213        1.1439014796
 C          3.0966480496       -1.8840379514        1.3667150100
 H          2.7564185294       -1.7818169815        2.4000013799
 H          4.1581481695       -2.1309088418        1.3708812001
 H          3.8173473105       -1.5701063312       -2.6657307399
 H          5.4214774102       -2.2609329317       -2.4161970696
 H          5.4394787807       -0.1252358018       -1.4075526394
 H          5.4164818001       -1.3018629020       -0.0830093095
 O          3.3989737110        0.9998479788       -1.0152540596
 C          2.3498817012        1.8369995890       -0.6608357997
 O          2.2560789216        2.8570366492       -1.3688401696
 O          0.9998108200       -0.1247028409        2.0701925698
 C          0.4004589110        2.3718407995        0.8407592500
 C         -0.6489945887        2.3753177599       -0.2427606203
 C         -0.8546707982        3.4471799201       -1.1014775202
 C         -1.8084688681        3.3680329905       -2.1008570904
 C         -2.5900181084        2.2368710308       -2.2446396706
 C         -2.3976252989        1.1605652506       -1.3852649107
 C         -1.4223627391        1.2307564402       -0.4038210305
 H         -1.2664435195        0.3880448801        0.2552837594
 N         -3.1798585492       -0.0000991591       -1.4999290110
 S         -3.8244138397       -0.6894367491       -0.1127986412
 O         -5.0549225498       -1.3116869387       -0.5573575016
 O         -3.9509138396        0.2804394308        0.9488996189
 C         -2.6873292402       -1.9800722595        0.3383711588
 C         -2.4178791703       -2.9611687195       -0.5958433512
 C         -1.5977198907       -4.0182227298       -0.2382292712
 C         -1.0689245910       -4.0792822701        1.0426276189
 C         -1.3437269209       -3.0828596601        1.9667291390
 C         -2.1607180805       -2.0208793698        1.6131704889
 H         -2.3935090204       -1.2244490398        2.3022109390
 H         -0.9207817511       -3.1213999304        2.9578150090
 H         -0.4375362713       -4.9077039403        1.3231867889
 H         -1.3762982208       -4.7928553898       -0.9546797813
 H         -2.8597662201       -2.8850757292       -1.5754024313
 H         -3.8695048591        0.0366614812       -2.2371735912
 H         -3.3446359183        2.1825085311       -3.0150581808
 H         -1.9527353577        4.2037570306       -2.7689032203
 H         -0.2567160580        4.3371534699       -0.9991460999
 H         -0.0370332593        1.8908998295        1.7272776798
 C          0.8907691914        3.7503304093        1.2288306702
 C          0.0100782315        4.6398810694        2.0525911201
 C          1.2346719312        4.0263914490        2.6605048703
 H          2.0800601414        4.6635788587        2.8728876306
 H          1.1059909608        3.2216948589        3.3696032502
 H          0.0124555919        5.7001489595        1.8508420303
 H         -0.9530741187        4.2502908797        2.3470401099
 H          1.5160031417        4.2099648192        0.4729580204
