  62
        -98.94008720
 C          1.6819264296        1.0163601105        0.6550896193
 C          2.0702390994        0.5744190899       -0.6335390806
 C          2.9102785694       -0.6350581701       -0.6708361202
 C          3.2067598497       -1.2759975595        0.4732756100
 C          4.0841911998       -2.4887514694        0.5787627404
 C          5.5483544998       -2.0940386393        0.8174208398
 C          6.0651412395       -1.0253092097       -0.1457661408
 H          5.5336860495       -0.0892750996        0.0410837989
 H          7.1159676196       -0.8509063596        0.0953900789
 C          5.9360440592       -1.3926150104       -1.6307110406
 H          6.8688073291       -1.1355956006       -2.1372692309
 H          5.7975219792       -2.4693032405       -1.7356636800
 C          4.8130902290       -0.6628088908       -2.3703298807
 H          4.9495885288       -0.8277822713       -3.4425333506
 H          4.8964004490        0.4125227293       -2.1927527412
 C          3.3856562091       -1.1009081407       -2.0186909701
 H          2.7105394989       -0.6462747211       -2.7499507502
 H          3.3028236291       -2.1863433207       -2.1046379696
 H          5.6420693300       -1.7103654088        1.8359642296
 H          6.1657109598       -2.9902898093        0.7339427001
 H          3.7389472000       -3.0911582491        1.4205915707
 H          3.9995128896       -3.0747520399       -0.3343730893
 O          2.7687458899       -0.8555581090        1.6867190299
 C          2.0231175299        0.3038936011        1.8096725295
 O          1.7244247202        0.5955931716        2.9839180794
 H         -0.4273260208        1.1652694795       -1.1917007603
 C         -1.1059492506        1.4038404999       -0.3859377203
 C         -0.6073065104        1.9976397105        0.7658940493
 C         -1.4903453801        2.2970078409        1.7960237094
 C         -2.8408490002        2.0191481708        1.6691275198
 C         -3.3360696204        1.4360545802        0.5167090202
 C         -2.4584129106        1.1243035698       -0.5144397398
 N         -2.9450027709        0.5158685192       -1.6842575494
 S         -4.0200929408       -0.7517201607       -1.5070545886
 O         -3.8294990410       -1.5843069013       -2.6735450382
 O         -5.3516936608       -0.2308730507       -1.3205345085
 C         -3.5062023604       -1.6143975900       -0.0305795083
 C         -2.2044610904       -2.0692089299        0.0454706016
 C         -1.7896248701       -2.7238725894        1.1936011318
 C         -2.6794717798       -2.9144966489        2.2398744721
 C         -3.9844234999       -2.4570104490        2.1461065222
 C         -4.4035886402       -1.7980144596        1.0014856420
 H         -5.4067536802       -1.4202226797        0.8884315620
 H         -4.6735457497       -2.6080403087        2.9612297724
 H         -2.3496108796       -3.4215467285        3.1328133823
 H         -0.7729565401       -3.0759036293        1.2702396418
 H         -1.5321489106       -1.9097735303       -0.7830817286
 H         -2.2245684010        0.3004290989       -2.3580411295
 H         -4.3855499504        1.2203342001        0.3977130406
 H         -3.5158371100        2.2585741912        2.4763045299
 H         -1.1098104700        2.7386145814        2.7052227591
 C          0.8673832396        2.2792667706        0.8949431388
 H          1.0612810799        2.5462493511        1.9453338887
 C          1.3329424394        3.4504143202        0.0382126082
 C          0.5025262391        4.0875012597       -1.0316340819
 C          0.7427399194        4.8123705103        0.2562181777
 H          1.3994108894        5.6691107403        0.2584365571
 H         -0.0847628804        4.8871178106        0.9457768078
 H          1.0109588989        4.4241024393       -1.9224886722
 H         -0.4854737709        3.6976909395       -1.2193501315
 H          2.4012970494        3.4121657101       -0.1497598120
 O          1.7421674691        1.1385707294       -1.7101857408
