  62
        -98.94014032
 C         -2.5272952476        0.0885332495        0.4722661118
 C         -2.2041975651        0.7659748869       -0.7264753436
 C         -1.7385198553        2.1574031095       -0.5890479559
 C         -1.5906408246        2.6835940193        0.6385866585
 C         -1.1673562456        4.0770335631        1.0373187008
 C         -0.0682826568        4.7622976410        0.2192814977
 C          1.0565103309        3.8345507628       -0.2625196642
 H          2.0187159523        4.2608738433        0.0285430418
 H          0.9763522865        2.8554872355        0.2155198234
 C          1.0593412150        3.6423913291       -1.7802220458
 H          0.8709452596        4.6040592609       -2.2637496138
 H          2.0517853827        3.3052196789       -2.0876194215
 C          0.0543774648        2.6114507405       -2.2886364884
 H          0.3402313217        1.6212480258       -1.9244457937
 H          0.1099647902        2.5884025441       -3.3799980618
 C         -1.4055566296        2.8605782742       -1.8741768677
 H         -1.6244590379        3.9246969839       -1.8179533900
 H         -2.0522549465        2.4120594050       -2.6334790752
 H         -0.5120941318        5.2621061145       -0.6405849721
 H          0.3513538592        5.5437174748        0.8557239545
 H         -2.0601096202        4.7106410084        1.0371527512
 H         -0.8422732396        3.9841408656        2.0770172916
 O         -1.8778743203        1.9774701900        1.7722119439
 C         -2.3408595382        0.6759445491        1.7204148040
 O         -2.5555544384        0.1593375907        2.8385038309
 H         -0.4023310865       -1.2653801307        1.0267841599
 C         -0.5871260683       -1.9726174798        0.2295097548
 C         -1.8876795273       -2.1854517947       -0.2096529502
 C         -2.1037783519       -3.1189354526       -1.2143246446
 C         -1.0346304132       -3.7873699260       -1.7869500471
 C          0.2633236464       -3.5272442421       -1.3882471542
 C          0.4868247252       -2.6096743134       -0.3671745659
 N          1.7862257907       -2.3152554071        0.0819071726
 S          2.0822234940       -0.7233599415        0.5737114732
 O          1.7732180316       -0.6123832419        1.9791228419
 O          1.4207974823        0.2070753836       -0.3087811840
 C          3.8492337622       -0.6371015280        0.3478809294
 C          4.3623692640        0.0361398972       -0.7440925395
 C          5.7364671866        0.0718134858       -0.9244801758
 C          6.5683454095       -0.5660378996       -0.0167707934
 C          6.0383029576       -1.2375095318        1.0753579927
 C          4.6658214746       -1.2751972300        1.2627661052
 H          4.2080371860       -1.7745955318        2.1007408941
 H          6.6882596553       -1.7298520701        1.7805088860
 H          7.6369409601       -0.5374334027       -0.1596791072
 H          6.1509206835        0.5960239463       -1.7703960127
 H          3.6746851593        0.5202571733       -1.4191028658
 H          2.5049784963       -2.6535489980       -0.5436133637
 H          1.0965921655       -4.0257965021       -1.8596021818
 H         -1.2146086992       -4.5055580047       -2.5725239883
 H         -3.1060751009       -3.3112322476       -1.5604114442
 C         -2.9799602292       -1.3609791743        0.4286032606
 H         -3.0832863246       -1.6784622581        1.4772383055
 C         -4.3223880755       -1.4877220954       -0.2592631168
 C         -5.2516373814       -2.6062587935        0.1022660227
 C         -5.5662950159       -1.2038930424        0.5259685447
 H         -6.3767747362       -0.6843782886        0.0374446531
 H         -5.4440836906       -0.9411246458        1.5670152113
 H         -5.8521785578       -3.0504384542       -0.6770430343
 H         -4.9246168870       -3.3017525490        0.8604345732
 H         -4.2934664420       -1.1535267803       -1.2897607068
 O         -2.3225567252        0.2443829105       -1.8662549282
