  62
        -98.94454947
 C         -1.8771463105       -1.4385921384       -0.0407659899
 C         -2.6982943401       -0.7353575777        0.8823142600
 C         -3.5537943795        0.3178717727        0.3269478699
 C         -3.5540675193        0.5430859425       -0.9991516001
 C         -4.4096163187        1.5416797029       -1.7307997503
 C         -3.8381696979        2.9659328826       -1.7517469305
 C         -3.8996863874        3.7082953228       -0.4163237206
 H         -3.6663308768        4.7552384826       -0.6200727008
 H         -4.9183739574        3.6717738235       -0.0292221606
 C         -2.9229625177        3.1790799724        0.6431323295
 H         -2.4029460272        4.0184242021        1.1100438593
 H         -2.1678271981        2.5564416718        0.1576726996
 C         -3.5761929582        2.3693201329        1.7629863496
 H         -4.2485785878        3.0113418434        2.3359645195
 H         -2.7896202984        2.0176836525        2.4353144996
 C         -4.3649563290        1.1458999533        1.2772386998
 H         -4.6011735193        0.5227041736        2.1430067299
 H         -5.2970040588        1.4604555438        0.8079116497
 H         -4.4106691075        3.5354172528       -2.4875421806
 H         -2.8032093079        2.9226884619       -2.0993035805
 H         -5.4079755487        1.5562569136       -1.2923324003
 H         -4.4881199190        1.1871879828       -2.7609634002
 O         -2.7645342198       -0.1571185781       -1.8534022400
 C         -1.8921321104       -1.1388173586       -1.4028251599
 O         -1.2112670607       -1.6437375991       -2.3198443898
 O         -2.7226207603       -0.9889397875        2.1151734301
 C         -1.0035403412       -2.5400374988        0.5375003603
 C          0.4241414291       -2.0886309597        0.7350891302
 C          0.9986735691       -2.0700261798        2.0006224702
 C          2.3116382393       -1.6668513906        2.1739432701
 C          3.0739859196       -1.2647116012        1.0922193301
 C          2.5014327996       -1.2617656611       -0.1737115099
 C          1.1897380793       -1.6787371803       -0.3472072599
 H          0.7516842393       -1.6744913702       -1.3342427199
 N          3.2531462798       -0.8202828517       -1.2759765700
 S          4.1520621807        0.5772711578       -1.0871250002
 O          4.2077474910        1.1808074876       -2.4000717503
 O          5.4258290605        0.2516488371       -0.4942506402
 C          3.2219028513        1.6071658785        0.0365723997
 C          1.9211586715        1.9334210493       -0.2928224904
 C          1.1865332520        2.7183718998        0.5806103295
 C          1.7603299523        3.1615804597        1.7624590894
 C          3.0691678421        2.8307707289        2.0758477295
 C          3.8086471216        2.0450689383        1.2064469796
 H          4.8276454614        1.7599627177        1.4118668796
 H          3.5133208323        3.1783836988        2.9945165894
 H          1.1807643926        3.7676484001        2.4406076694
 H          0.1676881421        2.9770706104        0.3393478495
 H          1.4981532313        1.5742686294       -1.2183469003
 H          2.7333475498       -0.8122307315       -2.1414778900
 H          4.1005030398       -0.9557339618        1.2060235300
 H          2.7465861093       -1.6644962207        3.1614442401
 H          0.4051301489       -2.3651988193        2.8532260402
 H         -1.4274003013       -2.7438401984        1.5299556003
 C         -1.0454978820       -3.8222761889       -0.2717406095
 C         -0.6975686328       -5.1162329290        0.3980755707
 C         -2.1163793726       -4.8315130082        0.0078635806
 H         -2.5444380629       -5.3714874781       -0.8234042193
 H         -2.8251623325       -4.6041136477        0.7908478206
 H         -0.1473736332       -5.8549015194       -0.1642726192
 H         -0.4449291328       -5.0846586290        1.4470176206
 H         -0.7437467719       -3.6917619292       -1.3029140596
