  62
        -98.94136038
 C         -1.8699442693       -1.3001391697        0.1495752701
 C         -3.0775340293       -0.8519733595        0.7428344700
 C         -3.7973450293        0.2083470303        0.0282213498
 C         -3.2834851894        0.7136024000       -1.1076582004
 C         -3.9095575995        1.7783239397       -1.9671527807
 C         -3.6317326195        3.2117614198       -1.4939954311
 C         -4.3788071594        3.6361530302       -0.2289217812
 H         -4.2640612294        4.7179987802       -0.1363902715
 H         -5.4429267194        3.4312155102       -0.3500929010
 C         -3.8691695593        2.9748669406        1.0594303690
 H         -3.7589848692        3.7321743408        1.8391103187
 H         -2.8765667293        2.5528255205        0.8835019390
 C         -4.7816355392        1.8812325107        1.6151003694
 H         -5.7343493992        2.3199290208        1.9197512593
 H         -4.3075516192        1.4574443010        2.5043334895
 C         -5.0627577393        0.7342183105        0.6356071997
 H         -5.5299336793       -0.0826840194        1.1912605200
 H         -5.7496777394        1.0651437102       -0.1432412603
 H         -3.9233010795        3.8842147196       -2.3040380313
 H         -2.5565031895        3.3283129199       -1.3380186612
 H         -4.9864091895        1.6159719297       -2.0233517405
 H         -3.4872759496        1.6588665194       -2.9672292707
 O         -2.1042350895        0.2840955198       -1.6269168004
 C         -1.3601548494       -0.7216412400       -1.0140812301
 O         -0.2947258494       -0.9801838002       -1.5993260801
 O         -3.5314336392       -1.3163988892        1.8227708102
 C         -1.1034485793       -2.3982259094        0.8634555803
 C          0.3622339307       -2.0537156894        0.9755988501
 C          1.3870041207       -2.9481833795        0.6949256803
 C          2.7111554407       -2.5708857694        0.8421864201
 C          3.0456148208       -1.2941637293        1.2516927997
 C          2.0286010608       -0.3837784492        1.5119789095
 C          0.7040995208       -0.7737194193        1.3952734897
 H         -0.0831005492       -0.0613075492        1.6120881596
 N          2.3526889208        0.9318416909        1.8801885091
 S          3.6298367807        1.6852712007        1.1041756488
 O          4.8590069108        1.3614775109        1.7869018988
 O          3.2793365707        3.0895760707        1.0877759884
 C          3.6900518406        1.0354359402       -0.5576399410
 C          2.5287964106        0.9740333299       -1.3007507809
 C          2.5794211105        0.4562842596       -2.5843240108
 C          3.7883504204        0.0236795994       -3.1065625507
 C          4.9497804605        0.1052738497       -2.3538464508
 C          4.9019931206        0.6105420800       -1.0648747710
 H          5.7765057906        0.6764327502       -0.4378439411
 H          5.8888702305       -0.2306526405       -2.7633435108
 H          3.8219230104       -0.3824956409       -4.1051629606
 H          1.6662309804        0.3722184794       -3.1508864407
 H          1.5931139206        1.3053920501       -0.8789861109
 H          1.5570373408        1.5481620909        1.9528445690
 H          4.0718349108       -0.9860201793        1.3714616196
 H          3.4950805007       -3.2803663395        0.6265249803
 H          1.1536666407       -3.9405759396        0.3475788506
 H         -1.5220562992       -2.3979958491        1.8848561004
 C         -1.3513649093       -3.7907338496        0.2988815808
 C         -2.5419336493       -4.0854520699       -0.5626836990
 C         -1.1670499894       -4.0976240800       -1.1563816891
 H         -0.7366967394       -5.0494558101       -1.4311171889
 H         -0.8782395094       -3.2824807202       -1.8008035594
 H         -3.0532913693       -5.0260227998       -0.4214910387
 H         -3.2003836594       -3.2659100000       -0.8123991192
 H         -1.0716722792       -4.5705545994        1.0003261110
