  62
        -98.94125835
 C         -2.7550660997       -0.8856428392       -0.3190425949
 C         -2.1720862048        0.1200459637       -1.1287153909
 C         -2.7043144088        1.4768057845       -0.9449086764
 C         -3.7325848792        1.6916217881       -0.1055423151
 C         -4.4136839463        3.0088160731        0.1487743905
 C         -3.7218598106        3.8778678742        1.2075693356
 C         -2.3987102197        4.5048047746        0.7668724258
 H         -2.5426878757        5.0303329591       -0.1776441650
 H         -2.1296160208        5.2501131489        1.5178559320
 C         -1.2427025714        3.5040975213        0.6296348600
 H         -0.3466437042        3.9029206677        1.1109016010
 H         -1.4909698812        2.5789201301        1.1561646368
 C         -0.8597032731        3.1613359018       -0.8099834735
 H         -0.0574712832        2.4188628813       -0.7686970736
 H         -0.4683410212        4.0531109778       -1.3052558128
 C         -2.0106949803        2.5989063080       -1.6558781603
 H         -2.7171836657        3.3918220767       -1.9011399513
 H         -1.5936790797        2.1996837279       -2.5834949629
 H         -4.4119392791        4.6826172365        1.4712319533
 H         -3.5566222960        3.2736934629        2.1027661637
 H         -4.4924398711        3.5655899236       -0.7853064658
 H         -5.4203246598        2.7737334430        0.5012362119
 O         -4.3061539764        0.6890208456        0.6113519648
 C         -3.8038280068       -0.5993267871        0.5608526710
 O         -4.3817790053       -1.4001174013        1.3232946892
 O         -1.2617223627       -0.0783454533       -1.9769760473
 C         -2.2576890539       -2.3249554726       -0.3022364294
 C         -0.9615236308       -2.3735827109        0.4712841200
 C         -0.9355568033       -2.8395524258        1.7811631836
 C          0.2354898359       -2.8093387602        2.5182344719
 C          1.4020287188       -2.3045268166        1.9706920354
 C          1.3821940806       -1.8290868341        0.6667544637
 C          0.2141728722       -1.8829332263       -0.0784873756
 H          0.2051100290       -1.4880144247       -1.0830922124
 N          2.5603102157       -1.2784891779        0.1014131552
 S          3.0144833800        0.2055583710        0.7800791088
 O          3.2704016305        0.0040991358        2.1838225583
 O          2.0472232734        1.2298029977        0.4493070424
 C          4.5465776787        0.5031334529       -0.0799748391
 C          5.6836892780       -0.1519853655        0.3517665578
 C          6.8714558918        0.0467319996       -0.3334174629
 C          6.9013299110        0.8905299818       -1.4339509193
 C          5.7514605812        1.5407574798       -1.8553643728
 C          4.5598115918        1.3454062974       -1.1745853125
 H          3.6430334647        1.8352468916       -1.4626851008
 H          5.7770605701        2.1973665668       -2.7102109711
 H          7.8269824074        1.0443798299       -1.9657514324
 H          7.7682774000       -0.4554711805       -0.0082798651
 H          5.6135949097       -0.7915960388        1.2157235416
 H          2.4257615347       -1.1171767899       -0.8902876182
 H          2.3119222771       -2.2469998770        2.5447921251
 H          0.2383595819       -3.1755851151        3.5339382101
 H         -1.8501262219       -3.2056414026        2.2261972855
 H         -3.0088177105       -2.8927076581        0.2624422251
 C         -2.1378870844       -2.9305125548       -1.6860389410
 C         -2.0716692375       -4.4211414126       -1.8204440213
 C         -3.3008833334       -3.6829219727       -2.2561016459
 H         -3.5035704244       -3.5927247594       -3.3127134550
 H         -4.1896024867       -3.7650722670       -1.6472189519
 H         -1.4288672003       -4.8420440953       -2.5781465450
 H         -2.1267472160       -5.0060687127       -0.9147527111
 H         -1.5530063206       -2.3339651639       -2.3730054859
