  62
        -98.93803969
 C          2.0089998993        0.8666121798        0.1029938107
 C          2.4040421193       -0.4268570299       -0.3091973101
 C          3.7318931093       -0.8806175602        0.1472404498
 C          4.4705872392       -0.0711320207        0.9254342004
 C          5.8560756091       -0.3188649311        1.4549712604
 C          6.9154306292        0.2750852595        0.5111163709
 C          7.3649698493       -0.6523251497       -0.6171264597
 H          8.0109659194       -0.0704988193       -1.2785697092
 H          7.9683240493       -1.4604715300       -0.1983359001
 C          6.2350984894       -1.2658127592       -1.4480412202
 H          5.4807440095       -0.5061817390       -1.6607211598
 H          6.6557389695       -1.5804135985       -2.4051273804
 C          5.5785503294       -2.4783838896       -0.7714139911
 H          6.1964594093       -2.7963903102        0.0681070988
 H          5.5557791694       -3.3155776491       -1.4722970116
 C          4.1345093793       -2.2607067699       -0.2963249811
 H          3.9150668392       -2.9642609905        0.5140191684
 H          3.4433667494       -2.5017784994       -1.1103191213
 H          7.7958444291        0.5444061692        1.0980518412
 H          6.5089779493        1.1980142698        0.0896604415
 H          5.9176460090        0.1976061883        2.4151819607
 H          6.0234292491       -1.3794786312        1.6171527497
 O          4.0450253991        1.1639857690        1.3094724312
 C          2.8159019492        1.6592890493        0.9211389214
 O          2.5561493491        2.7978244890        1.3590346821
 O          1.6948194194       -1.1737020494       -1.0340024206
 C          0.6533898393        1.4323517601       -0.2884717390
 C         -0.4180073908        0.6036817596        0.3766544303
 C         -0.6184171909        0.7432272687        1.7474453804
 C         -1.5689995510       -0.0145026217        2.4046633798
 C         -2.3399707809       -0.9293848313        1.7084397591
 C         -2.1449122208       -1.0771963004        0.3423452590
 C         -1.1966543907       -0.3071471999       -0.3186692904
 H         -1.0499484606       -0.4425277492       -1.3781781105
 N         -2.9416779007       -1.9931329499       -0.3702029217
 S         -4.5983189007       -1.8289105600       -0.1866359518
 O         -5.0155994608       -2.4638765808        1.0383534577
 O         -5.1770378806       -2.3577341292       -1.4015637922
 C         -4.8537160007       -0.0663052601       -0.0759486006
 C         -4.5584150106        0.7014299206       -1.1852454801
 C         -4.6790416006        2.0784239706       -1.0991292892
 C         -5.0864706307        2.6620054198        0.0909161811
 C         -5.3834101409        1.8773677391        1.1941611706
 C         -5.2635483509        0.4990861491        1.1138845497
 H         -5.4808621009       -0.1469336714        1.9485780692
 H         -5.7015698310        2.3342139284        2.1173634609
 H         -5.1732513108        3.7350886698        0.1575962118
 H         -4.4497238505        2.6909840212       -1.9563719688
 H         -4.2492367505        0.2150950313       -2.0964268404
 H         -2.6901214406       -2.0728883892       -1.3447122417
 H         -3.0843543710       -1.5335466516        2.2014482786
 H         -1.7117788711        0.1056051076        3.4677828198
 H         -0.0093201610        1.4525848183        2.2910195709
 H          0.6155632092        2.4416226998        0.1430226216
 C          0.5016049195        1.5387187711       -1.7913220790
 C         -0.6081323905        2.3717644514       -2.3578042085
 C          0.8117454195        2.8383893315       -2.4677798081
 H          1.2903445397        2.8133294122       -3.4354516880
 H          1.1311781595        3.6614966211       -1.8454399775
 H         -1.1052226304        2.0304501920       -3.2530889588
 H         -1.2558813505        2.8764564910       -1.6571307083
 H          0.7762049095        0.6305251414       -2.3139335795
