  62
        -98.94616709
 C          1.8191690404        0.9948015602       -0.3274693505
 C          3.1742343304        1.3046892100       -0.0616849403
 C          4.1492808904        0.2749893900       -0.4376221005
 C          3.7272697503       -0.8657849199       -1.0132746307
 C          4.6019051702       -2.0024918599       -1.4684950709
 C          4.9774324101       -2.9873237401       -0.3524660410
 C          5.9959149500       -2.4653046104        0.6618271291
 H          6.8661951601       -2.0746040404        0.1336056993
 H          6.3301399899       -3.3222624205        1.2500616990
 C          5.4477824901       -1.3957005605        1.6168111693
 H          5.7536131000       -1.6287041907        2.6392630393
 H          4.3556654701       -1.4155896104        1.5970797292
 C          5.9220755302        0.0259321795        1.3152614496
 H          7.0025656402        0.0909609794        1.4612624697
 H          5.4453593602        0.7053718594        2.0265426997
 C          5.5902483404        0.5141602698       -0.1009237203
 H          6.2379038104        0.0260359899       -0.8288534104
 H          5.7665710205        1.5918734098       -0.1423605401
 H          5.3964101500       -3.8758598101       -0.8302899212
 H          4.0659947000       -3.2885796101        0.1688919389
 H          5.5087732203       -1.6067701999       -1.9266055507
 H          4.0360824202       -2.5441676097       -2.2294490810
 O          2.4159175403       -1.1159277497       -1.2715852908
 C          1.4298889003       -0.2035334197       -0.9243058707
 O          0.2720824103       -0.5713158595       -1.1971870209
 O          3.5486264405        2.3858891199        0.4664508599
 C          0.7473902105        2.0040333202        0.0400771496
 C         -0.2744099396        1.3726134701        0.9521840495
 C          0.1637885002        0.6959171499        2.0887501794
 C         -0.7367676199        0.0983235198        2.9479799092
 C         -2.0959279598        0.1567348000        2.6901522491
 C         -2.5450957297        0.8379668102        1.5664302492
 C         -1.6366967796        1.4507005103        0.7119817194
 H         -2.0162316695        1.9691840705       -0.1517969605
 N         -3.9215775897        0.9458092604        1.2964074991
 S         -4.5407411196        0.5000226107       -0.1932320010
 O         -3.9284081295        1.2800841609       -1.2363691708
 O         -5.9730827396        0.6422082808       -0.0467164010
 C         -4.1360261998       -1.2290800293       -0.3643430013
 C         -2.8456586198       -1.6000473793       -0.6852973913
 C         -2.5427475499       -2.9512825794       -0.7601137015
 C         -3.5226115500       -3.9007240793       -0.5167112017
 C         -4.8139303200       -3.5097591993       -0.1948327117
 C         -5.1238771899       -2.1624994592       -0.1126717515
 H         -6.1139447099       -1.8118485492        0.1305622485
 H         -5.5761880001       -4.2487884592       -0.0071444619
 H         -3.2779060101       -4.9494863993       -0.5793394719
 H         -1.5337628299       -3.2398211394       -1.0091941415
 H         -2.0869875297       -0.8570875394       -0.8746280111
 H         -4.5101206798        0.5701002303        2.0269580490
 H         -2.8017196099       -0.3160702701        3.3562311790
 H         -0.3797288700       -0.4239795004        3.8227572891
 H          1.2260923602        0.6438057997        2.2861159294
 H          1.2687820605        2.7946102300        0.6006428598
 C          0.1491395706        2.6137631005       -1.2102444303
 C         -0.4141543493        4.0019409005       -1.1780155301
 C          0.8744798408        3.7322327405       -1.8936540400
 H          0.8825218708        3.7583727007       -2.9730721300
 H          1.7934462708        4.0755546604       -1.4411422899
 H         -1.2967771692        4.2105499507       -1.7641571301
 H         -0.3715188393        4.5367946303       -0.2411631800
 H         -0.3439885194        1.8816309306       -1.8412604305
