  62
        -98.94079513
 C          2.5766123283        1.3468576561        0.2537109982
 C          2.7764174031        0.4925202974       -0.8580102049
 C          3.5912028894       -0.7076504515       -0.6084630782
 C          4.0890914683       -0.9321715000        0.6201068005
 C          4.8878694961       -2.1382070344        1.0192024721
 C          3.9823245115       -3.2524913741        1.5617271131
 C          2.7802432889       -3.5638470235        0.6695462661
 H          2.2351624803       -4.3890299638        1.1334752792
 H          2.1039437670       -2.7048688114        0.6627790985
 C          3.1403219576       -3.9387231076       -0.7749392634
 H          2.5433170154       -4.8046733900       -1.0688806107
 H          4.1892507734       -4.2322258053       -0.8313579511
 C          2.8646648239       -2.8405103032       -1.8037580895
 H          1.8398239198       -2.4780314255       -1.6811536796
 H          2.9361086599       -3.2838046863       -2.8007583526
 C          3.8162167880       -1.6374029065       -1.7677658270
 H          4.8502235344       -1.9870104874       -1.7878493966
 H          3.6354302902       -1.0440109629       -2.6688804884
 H          4.5837539982       -4.1542371072        1.6901914636
 H          3.6084933358       -2.9495696414        2.5424656335
 H          5.4478208959       -2.4977246636        0.1581481755
 H          5.5895809040       -1.8412238813        1.8004091257
 O          3.8793444834       -0.0901521964        1.6633652401
 C          3.1125505740        1.0513711277        1.5113036472
 O          2.9898492780        1.7255483904        2.5531463044
 O          2.3092999521        0.6994531473       -2.0093038154
 C          1.7513624546        2.6245335235        0.1861321692
 C          0.2937831001        2.2918958062        0.3754454319
 C         -0.4386421621        2.8198698877        1.4311730903
 C         -1.7622189304        2.4589446700        1.6186024741
 C         -2.3790942741        1.5653982132        0.7612210110
 C         -1.6529414113        1.0288362097       -0.2941400184
 C         -0.3309943358        1.3976833082       -0.4842971660
 H          0.2319052173        0.9764927765       -1.3047883210
 N         -2.2679074493        0.1033454098       -1.1642510684
 S         -2.7916873267       -1.3252830357       -0.4431595533
 O         -2.0140665340       -1.6347198792        0.7357915518
 O         -2.7874714810       -2.3162351683       -1.4970877878
 C         -4.4752967402       -0.9642537785        0.0088259855
 C         -4.8653675136       -1.0301271874        1.3318454318
 C         -6.1813409579       -0.7390900236        1.6570783379
 C         -7.0779974685       -0.3894935934        0.6589631315
 C         -6.6705828700       -0.3306707801       -0.6657173384
 C         -5.3570728193       -0.6212871703       -0.9976129038
 H         -4.9990400800       -0.5919087768       -2.0131415657
 H         -7.3708974891       -0.0587999732       -1.4389338808
 H         -8.1006655726       -0.1619056764        0.9151780299
 H         -6.4998772470       -0.7847806333        2.6861143957
 H         -4.1307561672       -1.3003703079        2.0737067934
 H         -1.6893318358       -0.1169765443       -1.9638435770
 H         -3.4075577933        1.2766821908        0.9055034924
 H         -2.3185707218        2.8754048374        2.4443705692
 H          0.0427674186        3.5003325590        2.1183468146
 H          2.0733765967        3.2167534648        1.0564030593
 C          2.0382115317        3.4495156695       -1.0624818533
 C          1.0034590443        3.7955686476       -2.0878769046
 C          1.5143995801        4.8522590474       -1.1587605947
 H          2.1620984364        5.6224768332       -1.5489720369
 H          0.8532353004        5.1857973171       -0.3729758886
 H          1.3145530693        3.8157467087       -3.1213994473
 H         -0.0038103453        3.4374454035       -1.9443284172
 H          3.0422867824        3.2817903106       -1.4375768177
