  62
        -98.93905136
 C         -2.3255066328       -0.8306991372        0.6329932944
 C         -3.4299635119       -0.9633452124       -0.2443324307
 C         -4.5871340131       -0.1010683519        0.0436881839
 C         -4.5500793622        0.7339060112        1.0968147935
 C         -5.6334960255        1.7049579479        1.4646584695
 C         -5.4047668201        3.0705325544        0.8016031511
 C         -5.1142335848        2.9889600764       -0.6970883579
 H         -5.0012293332        4.0121397598       -1.0620505171
 H         -4.1552672836        2.4872756797       -0.8472439311
 C         -6.1961810848        2.2704965151       -1.5154442988
 H         -7.1234150425        2.2241980701       -0.9432464236
 H         -6.3992402955        2.8545595322       -2.4154924832
 C         -5.8135501827        0.8624388536       -1.9749319033
 H         -4.8374647359        0.8899274754       -2.4657432244
 H         -6.5455346049        0.5371536455       -2.7189129077
 C         -5.7703144808       -0.2081401588       -0.8773373182
 H         -6.7026065802       -0.1921190475       -0.3096322692
 H         -5.6815741324       -1.1822423542       -1.3667230074
 H         -6.2889353534        3.6880323997        0.9700337715
 H         -4.5545423749        3.5534730195        1.2889700808
 H         -6.5963422128        1.2985452900        1.1613605325
 H         -5.6273309676        1.8314418778        2.5485826501
 O         -3.4822970765        0.8195079702        1.9312603712
 C         -2.3514417542        0.0523965854        1.7173246054
 O         -1.4479455189        0.2358993019        2.5592706504
 H          1.3280267142       -0.3732236607        0.7968144682
 C          1.0446705175       -0.4408899011       -0.2439521601
 C         -0.1562538418       -1.0385913162       -0.5986463613
 C         -0.5075200194       -1.0905456077       -1.9439144414
 C          0.3339701025       -0.5632194829       -2.9060007400
 C          1.5437494841        0.0071054004       -2.5516627474
 C          1.8981570195        0.0748416757       -1.2092398245
 N          3.1060639018        0.6736615610       -0.8174119460
 S          3.9165661671        0.0538091079        0.5269639927
 O          3.8978741963       -1.3914867793        0.4928452274
 O          3.3896734809        0.6726787753        1.7173060988
 C          5.5651883065        0.6568676823        0.2136811388
 C          5.8847231625        1.9474146015        0.5913647216
 C          7.1552070029        2.4295490510        0.3192955088
 C          8.0793533016        1.6183718922       -0.3225433501
 C          7.7448519833        0.3246550987       -0.6935996978
 C          6.4755758202       -0.1635082584       -0.4256095022
 H          6.1737659825       -1.1650476422       -0.6869969010
 H          8.4665276605       -0.3045294924       -1.1891257557
 H          9.0675723224        1.9962121191       -0.5319781370
 H          7.4197305336        3.4337102220        0.6090460845
 H          5.1361317485        2.5361618144        1.0958095672
 H          3.7330988958        0.8409729157       -1.5924516392
 H          2.2055459951        0.4052334949       -3.3058984217
 H          0.0499877519       -0.6081066763       -3.9466464234
 H         -1.4500282550       -1.5350051108       -2.2230716191
 C         -1.0391785875       -1.6268174408        0.4767659283
 H         -0.5065029814       -1.5164480794        1.4318062292
 C         -1.2728813784       -3.1056478108        0.2321882696
 C         -0.1403401062       -4.0577736225        0.4664607820
 C         -1.3141231260       -4.0435507673        1.3985614399
 H         -2.0064178327       -4.8715509652        1.3694457384
 H         -1.1775883180       -3.6223279529        2.3844579577
 H         -0.0258646076       -4.8969400044       -0.2024471477
 H          0.7950666572       -3.6446243954        0.8162725271
 H         -1.9414130183       -3.3076084436       -0.5937691722
 O         -3.4750545163       -1.7543108233       -1.2230445285
