  62
        -98.93898945
 C          1.8764480936        0.7787294920       -0.1023504486
 C          2.4299487189        0.1064479730        1.0106269761
 C          3.5273453619       -0.8352515381        0.7307307436
 C          3.9071178006       -1.0326657951       -0.5438802498
 C          5.0316740692       -1.8994194548       -1.0389215799
 C          6.3216479923       -1.0761919209       -1.1957674109
 C          7.1783241413       -0.9729767278        0.0656418128
 H          7.6416202611       -1.9416778983        0.2645362901
 H          7.9816003404       -0.2631472651       -0.1447818917
 C          6.4376737265       -0.5174665972        1.3257128529
 H          5.7656014617        0.3066584598        1.0798449161
 H          7.1788875743       -0.1314827416        2.0282145588
 C          5.6515085993       -1.6483012088        2.0056715942
 H          5.9613594936       -2.6027767630        1.5804342842
 H          5.9120386185       -1.6830523106        3.0655557223
 C          4.1225520097       -1.5219226809        1.9299459794
 H          3.6775674210       -2.5190163148        2.0186121704
 H          3.7626152701       -0.9436852000        2.7868685328
 H          6.0406453939       -0.0753918581       -1.5336529039
 H          6.9309163075       -1.5265997444       -1.9819870465
 H          5.1845266388       -2.7489789260       -0.3798965563
 H          4.7313403444       -2.2666051476       -2.0226055294
 O          3.3171794292       -0.3959014873       -1.5924262513
 C          2.2960319951        0.5212216979       -1.4074634283
 O          1.8572025266        1.0221315452       -2.4589681744
 H         -0.3459168650       -0.6098684372        0.4151724784
 C         -0.9300963064       -0.0005614731       -0.2634814004
 C         -0.5057865897        1.2935876266       -0.5429051776
 C         -1.2731411166        2.0704449270       -1.3997127440
 C         -2.4136706674        1.5483071101       -1.9869085859
 C         -2.8192184813        0.2532771199       -1.7252542666
 C         -2.0706481963       -0.5252365891       -0.8502437495
 N         -2.4845267380       -1.8353781172       -0.5588335834
 S         -4.1107470691       -2.1028893449       -0.2711243148
 O         -4.1552797241       -3.2527413160        0.6050609537
 O         -4.8094057588       -2.2427515023       -1.5246354274
 C         -4.6868538314       -0.6431070910        0.5785579438
 C         -5.7045207205        0.1130629785        0.0337977791
 C         -6.1167395133        1.2588054301        0.6953952435
 C         -5.5037974215        1.6285568224        1.8822630713
 C         -4.4851329661        0.8559705787        2.4191532998
 C         -4.0708489463       -0.2918280320        1.7634958007
 H         -3.2836026475       -0.9143327661        2.1583199540
 H         -4.0088446081        1.1444755118        3.3425119226
 H         -5.8207839973        2.5234991008        2.3939548124
 H         -6.9099042602        1.8601375358        0.2813246110
 H         -6.1495864624       -0.2092806247       -0.8934389757
 H         -1.9047495140       -2.3115369050        0.1158220320
 H         -3.6930989800       -0.1724246892       -2.1910785785
 H         -2.9930589324        2.1588063176       -2.6622998301
 H         -0.9728371446        3.0812681912       -1.6196593778
 C          0.7574400922        1.7795198067        0.1244107518
 H          0.5869359839        1.7822478369        1.2112264194
 C          1.1842195119        3.1666867363       -0.3049538417
 C          0.5717399215        4.3747594424        0.3364734223
 C          1.9898658602        4.0012639199        0.6436706938
 H          2.7853859235        4.6126135277        0.2446782549
 H          2.2107145506        3.5780456665        1.6128564664
 H          0.3940693831        5.2478018645       -0.2729478196
 H         -0.1716745872        4.2110836055        1.1016047016
 H          1.4418617410        3.2171968763       -1.3567138043
 O          2.0245457958        0.2848346744        2.1922788720
