  62
        -98.93060114
 C          1.2995664473        1.3401034732        0.7415291825
 C          1.6620518936        0.6400283568       -0.4343911879
 C          2.5076270356       -0.5581668631       -0.2478351142
 C          2.8326369064       -0.9582901852        0.9944585413
 C          3.6318196232       -2.1480400707        1.4857494264
 C          4.4844640192       -2.9680212896        0.5209779146
 C          5.6978784896       -2.2295414481       -0.0443201432
 H          6.4231301055       -2.0885455653        0.7612223826
 H          6.1629310461       -2.8650359896       -0.8010269851
 C          5.4148213674       -0.8576101776       -0.6518770017
 H          5.0312409123       -0.1870048738        0.1198502276
 H          6.3667114845       -0.4418016994       -0.9933944951
 C          4.4531545122       -0.8522635460       -1.8383720776
 H          4.4570389585        0.1563352178       -2.2600208027
 H          4.8157450016       -1.5372888796       -2.6071763603
 C          2.9947720205       -1.2126029426       -1.5083652704
 H          2.8592591826       -2.2900930364       -1.4637626145
 H          2.3610967249       -0.8290376891       -2.3129277459
 H          4.8564991851       -3.8259514012        1.0877831681
 H          3.8704787913       -3.3660486423       -0.2814861227
 H          4.2696289824       -1.7665681772        2.2896955214
 H          2.9079095352       -2.8179552428        1.9639256099
 O          2.3845203863       -0.2944064064        2.1024731541
 C          1.6305590659        0.8593208014        2.0077270899
 O          1.3117518740        1.3526999293        3.1106103652
 O          1.3076458423        0.9772794769       -1.5887787864
 C          0.4583330477        2.6121273086        0.6929684481
 C         -0.8610420416        2.2543178797        0.0539608503
 C         -1.2452834749        2.4752043703       -1.2618839654
 C         -2.4631352387        2.0067282851       -1.7293416290
 C         -3.3187442589        1.2934380413       -0.9121723423
 C         -2.9379570628        1.0480577336        0.4008918143
 C         -1.7302280622        1.5335922378        0.8706906853
 H         -1.4361845432        1.3290735865        1.8933712587
 N         -3.7729258768        0.2717123017        1.2312256416
 S         -4.1872181109       -1.2300060257        0.6096141593
 O         -5.3251268543       -1.0849400575       -0.2631031645
 O         -4.3811861649       -2.0855289189        1.7594096578
 C         -2.7653400483       -1.7508865037       -0.3351959783
 C         -2.8633177736       -1.8925364940       -1.7039757107
 C         -1.7358736087       -2.2566843947       -2.4221393540
 C         -0.5357894703       -2.4693148184       -1.7630192564
 C         -0.4535881342       -2.3254731707       -0.3868696213
 C         -1.5766110877       -1.9592960249        0.3357403708
 H         -1.5409250957       -1.8394794034        1.4076945468
 H          0.4836090430       -2.4820383226        0.1237539711
 H          0.3435069537       -2.7450128749       -2.3227057467
 H         -1.7941937657       -2.3679262907       -3.4927541519
 H         -3.8156195652       -1.7157392105       -2.1766395234
 H         -3.4160309342        0.1729563918        2.1711499150
 H         -4.2621760859        0.9110713737       -1.2666532274
 H         -2.7414037213        2.1922493799       -2.7554400165
 H         -0.5922428940        2.9836731698       -1.9468158507
 H          0.2367939399        2.8339234360        1.7489514944
 C          1.2764088694        3.7995899420        0.2084257369
 C          1.6985676695        4.0694647015       -1.2027472227
 C          0.7050673141        4.9708396794       -0.5328147974
 H          1.0302484219        5.9595548013       -0.2441918015
 H         -0.3283570516        4.9234815399       -0.8364547563
 H          2.7015695139        4.4434831092       -1.3542884276
 H          1.3809860206        3.3864637874       -1.9724102463
 H          2.0250307471        4.0396784766        0.9611180354
