  62
        -98.93713603
 C         -1.8854856798       -0.3835503006       -0.7856925901
 C         -2.3059967501       -0.1587840796        0.5457176196
 C         -3.7548551902       -0.2717930996        0.7979598694
 C         -4.5745878399       -0.5859411606       -0.2202576406
 C         -6.0734248099       -0.7042977908       -0.1872849808
 C         -6.7330522600        0.6246691588       -0.5927357221
 C         -6.9527204404        1.6101187397        0.5543774471
 H         -7.3001412905        2.5479696093        0.1148290462
 H         -7.7500899105        1.2362711401        1.2001432272
 C         -5.7199399607        1.8971523606        1.4155605871
 H         -5.8845467010        2.8465263310        1.9288401163
 H         -4.8450807905        2.0232606502        0.7752846572
 C         -5.4481030208        0.8072627015        2.4632058681
 H         -6.3190181807        0.1557483914        2.5331232484
 H         -5.3298772411        1.2711479323        3.4446396977
 C         -4.1890370806       -0.0381532485        2.2192920091
 H         -3.3283028208        0.4436534720        2.6936579189
 H         -4.3108681205       -1.0093884581        2.7105362199
 H         -6.1089292899        1.0868943182       -1.3618798323
 H         -7.7034303398        0.4105853682       -1.0453367821
 H         -6.3413580196       -1.4642476314       -0.9243947203
 H         -6.4134714501       -1.0304827800        0.7910679794
 O         -4.1242628695       -0.7983879915       -1.4884379603
 C         -2.7821430995       -0.7014410216       -1.8043334600
 O         -2.5147813492       -0.9227345725       -3.0035437698
 H          2.1441879400       -0.0004385595       -0.1885766394
 C          1.7070353301       -0.9527239493        0.0626934813
 C          0.4131471403       -1.2553644599       -0.3354360788
 C         -0.1063057196       -2.5049719497       -0.0092221079
 C          0.6364134603       -3.4119023090        0.7211502330
 C          1.9257175502       -3.1047651184        1.1179523231
 C          2.4644050201       -1.8710687486        0.7773053122
 N          3.7711399099       -1.5276155681        1.1575087222
 S          4.7804858601       -0.7922534288        0.0418766419
 O          4.4690867905       -1.2007296200       -1.3079249579
 O          6.1190914400       -1.0949586182        0.5037520124
 C          4.4955406798        0.9538283613        0.2383223804
 C          4.2935597094        1.4656480423        1.5048899899
 C          4.1239766891        2.8328615024        1.6537306187
 C          4.1689719592        3.6620254415        0.5429537681
 C          4.3783067696        3.1330246005       -0.7211804915
 C          4.5433835599        1.7653949404       -0.8775726703
 H          4.6955871902        1.3111159496       -1.8435571699
 H          4.4120970697        3.7779657698       -1.5849891020
 H          4.0384074090        4.7260633315        0.6625405971
 H          3.9575152488        3.2477215332        2.6348450583
 H          4.2628634293        0.7934274130        2.3459477604
 H          4.2595373099       -2.2412354076        1.6790914429
 H          2.5098153602       -3.8143560179        1.6843630538
 H          0.2115265104       -4.3712232388        0.9763076337
 H         -1.1086268595       -2.7555821101       -0.3293485379
 C         -0.4151405797       -0.2839777307       -1.1425407898
 H         -0.3377492694       -0.5779103615       -2.2006330995
 C          0.0504212700        1.1520624595       -1.0015619409
 C          1.0933489002        1.7124757689       -1.9194863811
 C         -0.3356976899        2.1407633786       -2.0591139118
 H         -0.6070453801        3.1410359688       -1.7572430127
 H         -0.9039692996        1.7680239378       -2.8993232116
 H          1.5044612804        1.0560058684       -2.6721491104
 H          1.8019901599        2.4211860094       -1.5179088715
 H          0.0407404497        1.4893030504        0.0285754088
 O         -1.5136627904        0.1251616813        1.4814495096
