  62
        -98.94892353
 C         -2.2349048657       -0.8548003828        0.0787077468
 C         -1.5890045740       -0.1178474244       -0.9427622302
 C         -1.9926188258        1.2880459624       -1.0751487418
 C         -2.8960627463        1.7966033054       -0.2182277940
 C         -3.4024405633        3.2096356989       -0.2399684852
 C         -2.5750237822        4.1310301755        0.6652670561
 C         -1.0655873002        4.0285271389        0.4454250246
 H         -0.5914319676        4.7653877078        1.0986106572
 H         -0.7128442026        3.0472105439        0.7717754477
 C         -0.6130984046        4.2640580940       -1.0022849556
 H          0.2653923800        4.9127549292       -0.9888439224
 H         -1.3944262450        4.7841095831       -1.5589177773
 C         -0.2126002052        2.9875930549       -1.7445996748
 H          0.3439213215        3.2721812958       -2.6418540396
 H          0.4573722275        2.4039602169       -1.1080753797
 C         -1.3710660607        2.0842769485       -2.1876467158
 H         -2.1269551895        2.6807260876       -2.7039519337
 H         -0.9707475051        1.3501058335       -2.8930144449
 H         -2.7860165917        3.8769158876        1.7068397436
 H         -2.8992299637        5.1598886089        0.4947136415
 H         -3.3799341307        3.5773649582       -1.2642353366
 H         -4.4359861922        3.2055423776        0.1119834667
 O         -3.4490428964        1.0739005312        0.7909763446
 C         -3.1232892828       -0.2600976342        0.9717409818
 O         -3.6843181586       -0.8011460064        1.9488242880
 H         -0.3638963947       -0.9483049577        1.9048504250
 C          0.2212286216       -1.6511416852        1.3232634779
 C         -0.4232257763       -2.4908867862        0.4228182564
 C          0.3445268356       -3.3890771948       -0.3068866397
 C          1.7225079931       -3.4098779307       -0.1721275706
 C          2.3634102134       -2.5241676749        0.6752873415
 C          1.6000761494       -1.6445756725        1.4300907751
 N          2.2686165760       -0.6682486561        2.2298122363
 S          2.2777604126        0.8142861470        1.4125851378
 O          3.0177202731        1.7259208962        2.2604541139
 O          0.9349732013        1.2393068932        1.0805474734
 C          3.2128170819        0.4301201169       -0.0473944414
 C          4.5900357079        0.5153252845        0.0240133537
 C          5.3412855152        0.1701290076       -1.0872226045
 C          4.7042222680       -0.2573613600       -2.2429259257
 C          3.3214541628       -0.3384421238       -2.2960026235
 C          2.5612488506        0.0055386697       -1.1883957120
 H          1.4833923036       -0.0593785780       -1.2047725659
 H          2.8208342399       -0.6739332747       -3.1899451456
 H          5.2881487739       -0.5297509881       -3.1080362191
 H          6.4169075556        0.2321864152       -1.0483863853
 H          5.0360507261        0.8555880155        0.9441406446
 H          1.8133308513       -0.5206632310        3.1217511883
 H          3.4376551379       -2.4988174498        0.7585541919
 H          2.3052675841       -4.1064031484       -0.7545904344
 H         -0.1364484117       -4.0604132645       -0.9992800938
 C         -1.9141623303       -2.3293349519        0.2647097168
 H         -2.4032069807       -2.6339696178        1.2015538989
 C         -2.4943051912       -3.1357338968       -0.8784829565
 C         -2.8821773739       -4.5683814274       -0.6717180473
 C         -3.9413237060       -3.5203774878       -0.8309475830
 H         -4.5118316190       -3.4951256378       -1.7471350562
 H         -4.5045629386       -3.2198955787        0.0408900879
 H         -2.7301146046       -5.2664416259       -1.4808559586
 H         -2.7323001740       -4.9902059635        0.3105497315
 H         -2.0858439808       -2.8464691560       -1.8399336653
 O         -0.7334977275       -0.6159799678       -1.7200814252
