  62
        -98.93876418
 C         -2.3080898842       -1.2632793311       -0.0865633820
 C         -3.1019335494       -0.5884468812        0.8749489766
 C         -3.8197630048        0.6236340210        0.4393195853
 C         -3.6898706370        1.0228848744       -0.8391699690
 C         -4.2751219271        2.2405157823       -1.5034945847
 C         -3.5334900219        3.5316837166       -1.1229528459
 C         -3.2186232942        3.6765244637        0.3636365223
 H         -2.6125317483        4.5781924047        0.4864429883
 H         -2.6035196853        2.8324481282        0.6823849890
 C         -4.4345532762        3.8006716143        1.2792040703
 H         -5.0266237635        4.6651642081        0.9709715818
 H         -4.0598894447        3.9967999061        2.2869781685
 C         -5.3539374355        2.5788344811        1.3451153428
 H         -6.0009517283        2.5256368773        0.4737064572
 H         -6.0093238134        2.7125620303        2.2105776576
 C         -4.6329818814        1.2499047630        1.5464377294
 H         -5.3714383643        0.4916533477        1.8332786245
 H         -3.9583427313        1.3336557663        2.4059988548
 H         -4.1292909580        4.3829102509       -1.4570227303
 H         -2.5843149050        3.5490886503       -1.6652312940
 H         -5.3337109556        2.3204775135       -1.2752086184
 H         -4.1762430629        2.0880777031       -2.5806143529
 O         -2.9234282708        0.3388643213       -1.7342499507
 C         -2.2088521471       -0.7946734744       -1.3956077632
 O         -1.5554969124       -1.2704902210       -2.3480248506
 O         -3.2103298195       -0.9836544850        2.0669151087
 C         -1.5423223555       -2.4857262955        0.3960065083
 C         -0.1140594312       -2.0918960477        0.6868897071
 C          0.3536686821       -2.0136647538        1.9936218068
 C          1.6428795986       -1.5846779356        2.2572442599
 C          2.4860796646       -1.2120085303        1.2254348164
 C          2.0238381290       -1.2785892636       -0.0820287415
 C          0.7418769105       -1.7333295692       -0.3453787124
 H          0.3858003675       -1.7615315484       -1.3646778623
 N          2.8634669689       -0.8483569137       -1.1368689254
 S          3.1300538049        0.8173296731       -1.1477289152
 O          2.0090846034        1.5357481487       -0.5822025226
 O          3.4853088074        1.1474487704       -2.5109446138
 C          4.5636941194        1.0110377335       -0.1096760796
 C          4.4718481470        1.7327103811        1.0641181247
 C          5.6005599880        1.8659244555        1.8580505446
 C          6.7935404775        1.2779731996        1.4660673590
 C          6.8694035603        0.5580216257        0.2827722675
 C          5.7453601873        0.4220874201       -0.5160890459
 H          5.7595277557       -0.1231457306       -1.4449526303
 H          7.7989782882        0.1029025955       -0.0187122365
 H          7.6695105896        1.3818689700        2.0866960164
 H          5.5432176041        2.4254218267        2.7778858536
 H          3.5207773657        2.1660441339        1.3295901720
 H          2.5017570933       -1.1173274144       -2.0427061001
 H          3.4874992625       -0.8656703093        1.4229882592
 H          1.9918621221       -1.5309084437        3.2770943650
 H         -0.3115098064       -2.2703233224        2.8052956988
 H         -2.0149887367       -2.7627153019        1.3477332915
 C         -1.6274438050       -3.6692606430       -0.5456101459
 C         -1.3345189421       -5.0393210738       -0.0140680734
 C         -2.7383243733       -4.6600532542       -0.3761523063
 H         -3.1805862580       -5.0920173391       -1.2612616412
 H         -3.4434660116       -4.4877536946        0.4238308962
 H         -0.8096502905       -5.7360577942       -0.6492418079
 H         -1.0879741752       -5.1254972634        1.0332489394
 H         -1.3182109826       -3.4429707159       -1.5575790794
