  62
        -98.93559618
 C         -1.3748972134       -1.5956423415        0.4660851256
 C         -1.5320651132       -0.2511948397        0.8956865193
 C         -2.8402834102        0.3685209140        0.6508485812
 C         -3.8213612139       -0.3601349394        0.0890745500
 C         -5.2455846946        0.0688151328       -0.1494074375
 C         -5.4640569686        1.2008545162       -1.1712624901
 C         -5.5179286683        2.6048152072       -0.5567603170
 H         -6.2961858156        3.1797721790       -1.0628740857
 H         -5.8213888366        2.5189976482        0.4873635717
 C         -4.2253654170        3.4206231782       -0.6491718180
 H         -4.1254784591        3.8151571251       -1.6629194665
 H         -4.3184505477        4.2726404356        0.0276953371
 C         -2.9377238188        2.6644970191       -0.3224283822
 H         -2.1258802711        3.3893427111       -0.2513305307
 H         -2.6825097283        1.9982068456       -1.1496943373
 C         -2.9929208773        1.8270802372        0.9698976117
 H         -2.1579408635        2.0894784560        1.6224640061
 H         -3.9229352300        2.0079981326        1.5072403110
 H         -6.4216008127        1.0052454079       -1.6568472272
 H         -4.6955145397        1.1493377074       -1.9420050601
 H         -5.6870556286        0.3568628347        0.8075230449
 H         -5.7623077930       -0.8278543177       -0.4980240231
 O         -3.6327572747       -1.6484770678       -0.3022727926
 C         -2.4037305323       -2.2826470820       -0.1773869171
 O         -2.3895164565       -3.4285113374       -0.6687717295
 O         -0.6188949029        0.3964731474        1.4719285371
 C         -0.0018712298       -2.2066967131        0.6880911043
 C          0.8713269197       -1.9218350974       -0.5099813410
 C          0.5611935619       -2.4292427875       -1.7675618511
 C          1.3570403903       -2.1239583247       -2.8560463725
 C          2.4656648752       -1.3072313416       -2.7148599228
 C          2.7855479459       -0.7991717188       -1.4604640972
 C          1.9886651167       -1.1131387665       -0.3677729457
 H          2.2444805631       -0.7189576897        0.6033961993
 N          3.9105861137        0.0099872421       -1.2920969543
 S          4.1994258562        0.9411219602        0.0525137250
 O          5.2961218409        1.7955551687       -0.3522912162
 O          4.4524169146        0.0999742370        1.1967173356
 C          2.7539204171        1.9469047263        0.3335102650
 C          2.2944390599        2.1061790279        1.6241797805
 C          1.2191010069        2.9467027896        1.8567851530
 C          0.6241238992        3.6105977971        0.7973570613
 C          1.0895770184        3.4329708540       -0.4960371892
 C          2.1678547752        2.5968520992       -0.7337262060
 H          2.5541932269        2.4469289784       -1.7289236936
 H          0.6156260121        3.9431970303       -1.3197432374
 H         -0.2097723622        4.2696244751        0.9835950541
 H          0.8465748367        3.0736725290        2.8603287299
 H          2.7802446593        1.5648522775        2.4205231632
 H          4.3712094942        0.3334782049       -2.1275446092
 H          3.0823704439       -1.0670946455       -3.5671730056
 H          1.1088358374       -2.5214629162       -3.8286852431
 H         -0.3137071780       -3.0513551508       -1.8819861011
 H          0.4252050128       -1.6602439597        1.5405945430
 C         -0.0056837393       -3.6831804496        1.0244679370
 C          1.2083600480       -4.2714353171        1.6769581140
 C         -0.0596234478       -4.1093079251        2.4593851253
 H         -0.6280716951       -4.9916337526        2.7122927840
 H         -0.0982016480       -3.3350365408        3.2118937758
 H          1.5141128183       -5.2666996038        1.3930725655
 H          2.0304148988       -3.6059729938        1.8966820387
 H         -0.5371247845       -4.2931292106        0.3065875079
