  62
        -98.92707145
 C          2.6405757287        0.4177244268       -0.2972710534
 C          2.1098921042        1.4162267194       -1.1486325231
 C          1.4367306285        2.5439573637       -0.4948186380
 C          1.3665599293        2.5748244872        0.8479591141
 C          0.6197989638        3.5960105318        1.6578655309
 C         -0.8827623777        3.2457195545        1.6704345156
 C         -1.7752552127        4.2624536943        0.9570508961
 H         -2.7593760606        3.8023269379        0.8459820257
 H         -1.8900268942        5.1429447665        1.5935116788
 C         -1.2866459195        4.7361501939       -0.4157350620
 H         -2.1368099247        5.2108556131       -0.9102302767
 H         -0.5292369751        5.5110203733       -0.2862579632
 C         -0.7226307037        3.6480195721       -1.3390542523
 H         -1.1047705924        2.6655790146       -1.0569018848
 H         -1.0662234752        3.8485738680       -2.3561918083
 C          0.8171095302        3.5877728626       -1.3806842986
 H          1.2349514388        4.5704225119       -1.1456616179
 H          1.1344660677        3.3266190546       -2.3943902582
 H         -1.0111983028        2.2615946018        1.2128759644
 H         -1.2259386986        3.1537679876        2.7026830984
 H          1.0233525620        3.5679260869        2.6704638769
 H          0.7806009910        4.5886489305        1.2428208921
 O          1.9124489876        1.6135965353        1.6359003330
 C          2.5078268394        0.4843586513        1.0906456207
 O          2.8759503624       -0.3518805828        1.9343634328
 O          2.1815461072        1.3530818671       -2.4082179084
 C          3.1889870511       -0.8558324796       -0.9376007874
 C          2.2427217660       -1.9458284376       -0.4938441475
 C          2.4825840766       -3.0053756241        0.3700607906
 C          1.4426643206       -3.8140577110        0.8049425376
 C          0.1376481850       -3.5781638820        0.4169856132
 C         -0.1119743111       -2.5344645925       -0.4614327240
 C          0.9298175863       -1.7558840458       -0.9244612547
 H          0.7109478217       -0.9288913203       -1.5900372279
 N         -1.4606526543       -2.2052629833       -0.7991809199
 S         -2.0020024684       -0.9887652911        0.2546407641
 O         -1.4724257938        0.2975525883       -0.1480889095
 O         -1.7203979034       -1.4100854680        1.6032577258
 C         -3.7601498838       -1.0366496849       -0.0377548138
 C         -4.4687247277       -2.1164727179        0.4529204152
 C         -5.8300298905       -2.1917483130        0.2073336188
 C         -6.4563299595       -1.1918017294       -0.5223767536
 C         -5.7317091812       -0.1145236693       -1.0084474575
 C         -4.3686681618       -0.0345366307       -0.7673311776
 H         -3.7660466766        0.7860128636       -1.1231882230
 H         -6.2204530030        0.6622091146       -1.5743004398
 H         -7.5162968093       -1.2519292327       -0.7124013160
 H         -6.3970943267       -3.0276402003        0.5840106240
 H         -3.9386854712       -2.8633878088        1.0200270180
 H         -1.5108498922       -1.8162538987       -1.7336923506
 H         -0.6814213123       -4.1667802931        0.7955877753
 H          1.6568998729       -4.6225861597        1.4875347228
 H          3.4697529963       -3.1967505389        0.7502166291
 H          3.0169476776       -0.7093044511       -2.0171430793
 C          4.6949571030       -0.9640272132       -0.7825818949
 C          5.4269636058       -1.4437872668        0.4318914916
 C          5.4594213850       -2.2531365186       -0.8306419554
 H          6.3804554024       -2.2720708238       -1.3941998463
 H          4.9024816713       -3.1747684567       -0.8770108787
 H          6.3209696696       -0.9057647331        0.7136329430
 H          4.8481729044       -1.7714917450        1.2790922058
 H          5.1589376534       -0.1238338612       -1.2951781495
