  62
        -98.94365393
 C         -1.8447795984       -0.8526468860        0.7662893508
 C         -2.1141397333       -0.4156128640       -0.5533179909
 C         -3.5305961983       -0.4071298030       -0.9402520606
 C         -4.4653310299       -0.8344739853       -0.0719657293
 C         -5.9464445015       -0.9028488563       -0.3285622343
 C         -6.6820502780        0.4217491678       -0.0829525687
 C         -6.4328152647        1.5080876241       -1.1300670106
 H         -6.6197702525        1.1018655417       -2.1245601818
 H         -7.1693108997        2.2951884097       -0.9561199852
 C         -5.0284797696        2.1264215434       -1.0801456544
 H         -4.5612281243        1.8937302990       -0.1203815771
 H         -5.1070513780        3.2142685003       -1.1407498875
 C         -4.0964746230        1.6760804515       -2.2052107307
 H         -4.4869755002        2.0227237809       -3.1645853995
 H         -3.1206920659        2.1431299327       -2.0485876378
 C         -3.8871279108        0.1579831544       -2.2818196554
 H         -4.7798778015       -0.3264151212       -2.6765234224
 H         -3.0514684354       -0.0389047664       -2.9574988576
 H         -6.4046502268        0.7971955926        0.9048713835
 H         -7.7521029638        0.2021911994       -0.0657438079
 H         -6.1271010680       -1.2370348974       -1.3504702281
 H         -6.3470278589       -1.6512435139        0.3586112922
 O         -4.1586558114       -1.2831146292        1.1751703671
 C         -2.8506392671       -1.2765422859        1.6333712292
 O         -2.7153835109       -1.6662427339        2.8116703609
 H          2.0887620417       -0.1305613253        0.3905851215
 C          1.4823939694        0.7117572337        0.6775458646
 C          0.1929763021        0.5156570046        1.1459836713
 C         -0.5541769757        1.6282634617        1.5248885984
 C         -0.0316374897        2.9016065288        1.4149514287
 C          1.2548482845        3.0932328217        0.9421421386
 C          2.0152307583        1.9901777600        0.5757868752
 N          3.3131990580        2.1529465956        0.0742934747
 S          4.5130530894        1.0451129310        0.4224396489
 O          4.3808282442        0.5139326218        1.7590662786
 O          5.7466960464        1.7495200665        0.1428141837
 C          4.3088702071       -0.2525578441       -0.7794177355
 C          4.6089650159       -1.5495663957       -0.4123955855
 C          4.4934234364       -2.5585359951       -1.3558499350
 C          4.0822509045       -2.2538815827       -2.6441252640
 C          3.7875138084       -0.9458242147       -2.9973112132
 C          3.9048885591        0.0681016207       -2.0600973940
 H          3.6776809662        1.0929101572       -2.3017092577
 H          3.4639376005       -0.7129472162       -3.9990659439
 H          3.9889673337       -3.0406428043       -3.3761035373
 H          4.7221777537       -3.5765870337       -1.0825832136
 H          4.9139166161       -1.7431336908        0.6039243327
 H          3.6584243482        3.1011057471        0.0650203438
 H          1.6649285823        4.0879315312        0.8550061542
 H         -0.6280164123        3.7540877456        1.7041243424
 H         -1.5577568477        1.4799188169        1.9009236271
 C         -0.4160174819       -0.8595015361        1.2764920804
 H         -0.4726262254       -1.1052700379        2.3476223744
 C          0.3778738166       -1.9398388724        0.5707778774
 C          1.5156069248       -2.6232535386        1.2658958949
 C          0.2314028539       -3.3583440827        1.0296561845
 H          0.2143821350       -4.1418894469        0.2873577289
 H         -0.4200680215       -3.5403217107        1.8722943692
 H          2.3795137355       -2.9023565345        0.6818559659
 H          1.7487294388       -2.3104207972        2.2728384540
 H          0.4612235081       -1.7634615075       -0.4957111119
 O         -1.2237533816       -0.0513134811       -1.3633946184
