  62
        -98.94016743
 C          2.6290410542        1.3194742067       -0.0125667992
 C          2.5416333681        0.1892494022       -0.8600449906
 C          3.8010780328       -0.5328424965       -1.0922907887
 C          4.9345265075       -0.0839372481       -0.5224192554
 C          6.2738843643       -0.7521054297       -0.6323032218
 C          6.4922042183       -1.7485432325        0.5148093104
 C          5.3240679221       -2.7118777751        0.7261164016
 H          5.6019674879       -3.3875845121        1.5379425384
 H          4.4510343863       -2.1480289619        1.0633556065
 C          4.9456093482       -3.5324167599       -0.5148143503
 H          4.7929291626       -4.5711839903       -0.2144782752
 H          5.7670344833       -3.5198257764       -1.2321051839
 C          3.6604743470       -3.0771290726       -1.2091343345
 H          3.3711520138       -3.8482437341       -1.9283167213
 H          2.8537384107       -2.9980156042       -0.4752401195
 C          3.7482387587       -1.7495353734       -1.9726561041
 H          4.6018115972       -1.7720311128       -2.6532721425
 H          2.8354059312       -1.6490207886       -2.5672355714
 H          6.6426919294       -1.1855150543        1.4388177624
 H          7.4017565779       -2.3163956615        0.3109088562
 H          6.3416011202       -1.2637999577       -1.5902297150
 H          7.0465187597        0.0170846360       -0.5851208908
 O          4.9808976452        1.0178824631        0.2693601566
 C          3.8322136798        1.7367382123        0.5559782335
 O          4.0086711389        2.7102850393        1.3160632695
 H         -1.2783322085        1.7663140559       -0.3423546238
 C         -0.9650631854        1.1582842260        0.4918974167
 C          0.3441059200        1.2220837359        0.9383799868
 C          0.7172777911        0.4235192888        2.0166955960
 C         -0.1940061671       -0.4221378136        2.6178619961
 C         -1.5013388480       -0.4858853894        2.1664424349
 C         -1.8862906806        0.3092428561        1.0968546866
 N         -3.2193734479        0.2950584226        0.6455286638
 S         -4.0506003741       -1.1693870525        0.5422405669
 O         -4.3630078738       -1.6165341337        1.8765261352
 O         -3.3298916426       -2.1094671694       -0.2875764817
 C         -5.5376856485       -0.6234924836       -0.2734208102
 C         -6.5159785908       -0.0074703897        0.4838841972
 C         -7.6624581730        0.4486412798       -0.1465970157
 C         -7.8103194265        0.2831075917       -1.5158700949
 C         -6.8203361245       -0.3380831301       -2.2622234989
 C         -5.6703023835       -0.7956679372       -1.6379803018
 H         -4.8781436304       -1.2905202786       -2.1771351900
 H         -6.9393316411       -0.4676867236       -3.3260317829
 H         -8.7037226619        0.6385170118       -2.0046408072
 H         -8.4353694323        0.9307622303        0.4299620213
 H         -6.3604131684        0.0919082900        1.5453656154
 H         -3.3264389485        0.8136341233       -0.2163046056
 H         -2.2176767620       -1.1488731909        2.6231368858
 H          0.1133989261       -1.0414578497        3.4476966563
 H          1.7386330492        0.4698665556        2.3714055484
 C          1.3808023471        2.1213542112        0.3089029682
 H          1.6828656604        2.8670155977        1.0587534044
 C          0.8957105336        2.8457518641       -0.9295281328
 C          0.1213831649        4.1225955251       -0.8032318873
 C          1.5349246108        4.1489916213       -1.2998708766
 H          1.7128459270        4.3571706667       -2.3442477262
 H          2.3048447800        4.5265068725       -0.6427264749
 H         -0.0722194452        4.4924744453        0.1922255103
 H         -0.6709682771        4.3189954524       -1.5098898968
 H          0.6429956193        2.1667505934       -1.7361317908
 O          1.4700260680       -0.1961378343       -1.3979204640
