  62
        -98.94256983
 C          2.1197779993        0.8775139606        0.1470022602
 C          2.5706167696       -0.0406436691        1.1240296203
 C          2.8581153497       -1.3963956791        0.6439506406
 C          2.6360182495       -1.7076851494       -0.6463374693
 C          2.8340461196       -3.0598754396       -1.2762094591
 C          4.2773961196       -3.3448088194       -1.7137888393
 C          5.2619445298       -3.6088256690       -0.5738875294
 H          4.8585199901       -4.3825336889        0.0799661008
 H          6.1740015298       -4.0050816590       -1.0243238995
 C          5.6188890498       -2.3661891288        0.2535290103
 H          5.3389112795       -1.4675137689       -0.3008329199
 H          6.7000079998       -2.3265799486        0.4034199400
 C          4.9681185801       -2.3167128786        1.6357601704
 H          5.3418279303       -3.1411825984        2.2467766605
 H          5.2593208600       -1.3802970084        2.1181238201
 C          3.4352551701       -2.3819550888        1.6152133107
 H          3.1038058202       -3.3917531289        1.3736696510
 H          3.0668844102       -2.1209366487        2.6104779307
 H          4.6313822193       -2.5045736095       -2.3154320995
 H          4.2529266196       -4.2272612796       -2.3572089191
 H          2.5005904499       -3.8357911795       -0.5861898088
 H          2.1917577294       -3.0844976299       -2.1594794289
 O          2.1683141692       -0.8044291697       -1.5490592994
 C          1.9034149691        0.5059613503       -1.1805357697
 O          1.4888111388        1.2267759900       -2.1084494097
 H         -0.2417703505        0.7072269405        1.2283697407
 C         -0.6000523407        1.5833335703        0.6996782606
 C          0.3131532690        2.5461296204        0.2866108002
 C         -0.1667973813        3.6600996702       -0.3884957500
 C         -1.5172151414        3.7840182199       -0.6701256597
 C         -2.4161893611        2.8066768498       -0.2847384193
 C         -1.9481196108        1.7013997500        0.4109750608
 N         -2.8629336006        0.6791135300        0.7842798212
 S         -3.1865993607       -0.3987321203       -0.4835531685
 O         -2.1823832405       -1.4443138502       -0.5008446684
 O         -3.3627095810        0.3551778694       -1.6973113486
 C         -4.7507896304       -1.0763592205        0.0391298420
 C         -4.7899043501       -2.3026422503        0.6730443423
 C         -6.0115752600       -2.7961075105        1.1040049426
 C         -7.1660862001       -2.0567523807        0.8977930527
 C         -7.1104883404       -0.8261085108        0.2603446924
 C         -5.8924263906       -0.3279787707       -0.1729329780
 H         -5.8006689209        0.6182909292       -0.6795178382
 H         -8.0105310406       -0.2547987410        0.1001112224
 H         -8.1151251200       -2.4432021208        1.2342097529
 H         -6.0571452597       -3.7534093303        1.5978074728
 H         -3.8682997500       -2.8467378402        0.8040776022
 H         -2.4910232703        0.1237490702        1.5454597413
 H         -3.4634592012        2.8764642496       -0.5273513991
 H         -1.8708307016        4.6497750697       -1.2091416698
 H          0.5199791685        4.4243818202       -0.7137245303
 C          1.7742444791        2.2951494607        0.5688225000
 H          1.9283931493        2.3234173609        1.6579620899
 C          2.7032451188        3.2960116607       -0.0835352204
 C          2.9934829787        4.6040658709        0.5883213492
 C          4.0483773589        3.5417828910        0.5292980493
 H          4.8940120888        3.6870540910       -0.1259444709
 H          4.2857161392        3.0029896613        1.4350226593
 H          3.1179887285        5.4825478008       -0.0264497510
 H          2.5181039689        4.7931127910        1.5387440093
 H          2.6415660786        3.2746019804       -1.1658868504
 O          2.7096879998        0.2550046012        2.3423353702
