  62
        -98.93961205
 C          1.3812331685        1.5643979743        0.1615111587
 C          1.6641137032        0.5021057725        1.0562628889
 C          2.9123993578       -0.2521522114        0.8400518589
 C          3.6928973290        0.0641766032       -0.2103907831
 C          5.0386314045       -0.4657623998       -0.6614320709
 C          5.6685828812       -1.6780144921        0.0183908373
 C          4.9817814405       -3.0064427017       -0.2986697042
 H          5.1942798791       -3.2649499732       -1.3390008246
 H          5.4194416231       -3.7822888476        0.3328014700
 C          3.4659407491       -3.0131617791       -0.1226371747
 H          3.0950136504       -3.9942899453       -0.4303901625
 H          3.0233273735       -2.2725199047       -0.7916798641
 C          2.9781106394       -2.7589402449        1.3018490935
 H          1.9022876396       -2.9529749120        1.3300634881
 H          3.4570341304       -3.4650643699        1.9832063449
 C          3.2099430103       -1.3364293774        1.8377640100
 H          2.5218175361       -1.1765535471        2.6734935842
 H          4.2201294334       -1.2254716228        2.2266073833
 H          5.7250836829       -1.5186131942        1.0912417062
 H          6.6973419395       -1.7427153940       -0.3458231395
 H          4.9438953771       -0.6634575690       -1.7340340922
 H          5.7266474538        0.3815378503       -0.5675467133
 O          3.3450040651        1.0513836374       -1.0846658076
 C          2.2111310195        1.8317338684       -0.9266440823
 O          2.0807307696        2.6981986782       -1.8113324205
 H         -2.0935505836        1.1158093084        1.2264705126
 C         -2.0945716311        1.3293947827        0.1680012707
 C         -1.0201372278        1.9893386239       -0.4109908235
 C         -1.0514259094        2.2479679179       -1.7777602410
 C         -2.1388034953        1.8574388613       -2.5372007201
 C         -3.2022235093        1.1856662562       -1.9588010144
 C         -3.1754448779        0.9127694860       -0.5972398929
 N         -4.2267828939        0.2133920419        0.0236394115
 S         -3.8268373712       -1.1025287917        0.9851466703
 O         -5.0475451809       -1.8749266178        1.0682368944
 O         -3.2790146622       -0.6507940752        2.2368364297
 C         -2.6158317584       -1.9743380226        0.0100318983
 C         -3.0849359617       -2.8075681030       -0.9879956103
 C         -2.1789843414       -3.4139652022       -1.8415604793
 C         -0.8232670427       -3.1591524364       -1.6982053806
 C         -0.3702885722       -2.3195782559       -0.6934891578
 C         -1.2691531548       -1.7234203028        0.1774713059
 H         -0.9296555528       -1.0790709344        0.9734621149
 H          0.6817940479       -2.1118443597       -0.5798125008
 H         -0.1142182193       -3.6166747137       -2.3700351076
 H         -2.5295224737       -4.0733796886       -2.6190306222
 H         -4.1471835943       -2.9753689835       -1.0647960901
 H         -4.9810578515       -0.0303594933       -0.6030722694
 H         -4.0459548480        0.8743947900       -2.5557251804
 H         -2.1543182912        2.0690580600       -3.5955560020
 H         -0.2098689540        2.7410975536       -2.2386083664
 C          0.1471902426        2.4026121854        0.4526945247
 H         -0.1174979597        2.1673698079        1.4930657252
 C          0.4043668922        3.8936651076        0.3530686953
 C         -0.5301753757        4.8360258945        1.0479507271
 C          0.8620629517        4.6411167043        1.5676416946
 H          1.5782993861        5.4391561606        1.4417207767
 H          0.9909004930        4.0803668722        2.4823109842
 H         -1.3458008879        4.4063694793        1.6104555306
 H         -0.7730206683        5.7701744825        0.5654398571
 H          0.8136804112        4.2009651938       -0.6000265203
 O          0.9108644164        0.2075494716        2.0243088523
