  62
        -98.94044454
 C          1.7472194839        1.1371670044       -0.6604629070
 C          1.8529529146        0.3191832608        0.4920298842
 C          3.2240759595        0.0225326537        0.9403385581
 C          4.2684211226        0.5661882114        0.2911113362
 C          5.7111065798        0.3017885707        0.6085689632
 C          6.2504078163       -0.8840292286       -0.2037702458
 C          5.3584030652       -2.1245151176       -0.1535436860
 H          4.4123914120       -1.9038960905       -0.6532180030
 H          5.8541676517       -2.9045495536       -0.7353951636
 C          5.0735831893       -2.6450403311        1.2622297366
 H          5.1920898062       -3.7306114654        1.2661397878
 H          5.8052158454       -2.2373853545        1.9607767674
 C          3.6630242221       -2.3485224851        1.7749656397
 H          3.4991385119       -2.9406075811        2.6791601049
 H          2.9287630353       -2.6731600808        1.0334837066
 C          3.3763131457       -0.8838688940        2.1294487521
 H          4.1504292692       -0.5098062060        2.8025162112
 H          2.4173245790       -0.8492613112        2.6547066138
 H          7.2454913356       -1.1333899543        0.1692073401
 H          6.3470629338       -0.5736165820       -1.2468652449
 H          6.2873433998        1.1942592071        0.3585143613
 H          5.8128970145        0.1025609121        1.6736284528
 O          4.1247212189        1.3981444961       -0.7725683098
 C          2.8693921240        1.7000940021       -1.2738513062
 O          2.8828380782        2.4787579103       -2.2484912142
 O          0.8693129536       -0.1472340900        1.1205247603
 C          0.3978121925        1.5086139859       -1.2512754606
 C         -0.5513486124        1.9222752291       -0.1545155467
 C         -0.2313615177        3.0357717961        0.6185308983
 C         -1.0646074182        3.4498570410        1.6387334291
 C         -2.2427196909        2.7719896300        1.8997170787
 C         -2.5706154575        1.6597175355        1.1347883187
 C         -1.7259429669        1.2403053657        0.1162952668
 H         -1.9876291622        0.3642329667       -0.4521089584
 N         -3.7394048625        0.9339781581        1.3959116538
 S         -4.5776211864        0.1708224345        0.1742703978
 O         -4.5558910360        0.9364043755       -1.0513089260
 O         -5.8891365937       -0.0770808825        0.7360811175
 C         -3.7515611789       -1.3884293189       -0.0640822489
 C         -3.7498160265       -1.9465952921       -1.3272363306
 C         -3.1499054419       -3.1818278623       -1.5152457333
 C         -2.5631589293       -3.8335264859       -0.4414732795
 C         -2.5737918002       -3.2592790521        0.8201860195
 C         -3.1772679624       -2.0274890879        1.0161296331
 H         -3.1944642191       -1.5529273629        1.9828521403
 H         -2.1104010467       -3.7650095987        1.6518943656
 H         -2.0916510235       -4.7921767757       -0.5902493914
 H         -3.1395951360       -3.6290767155       -2.4967798647
 H         -4.2048178951       -1.3987174206       -2.1372758750
 H         -4.3441074239        1.3145218481        2.1078503036
 H         -2.8975710758        3.0950310689        2.6947566560
 H         -0.8001668818        4.3114849112        2.2334076758
 H          0.6888432558        3.5664434105        0.4123444958
 H          0.5940462155        2.3978783439       -1.8736357177
 C         -0.1842297992        0.4510537094       -2.1775328938
 C          0.7118226647       -0.4155146502       -3.0099560187
 C         -0.0788452740       -1.0149028061       -1.8879742125
 H         -0.9215834206       -1.6451182348       -2.1316092689
 H          0.4377768320       -1.3104732281       -0.9890602030
 H          0.4157792418       -0.6331610368       -4.0250760502
 H          1.7782383621       -0.2963020435       -2.8830045209
 H         -1.1018189764        0.7903731148       -2.6502531529
