  62
        -98.93812210
 C         -2.5382670089       -0.2409955296        0.0312392557
 C         -2.3478476704        0.7808720127        0.9867623493
 C         -2.1314978292        2.1474037134        0.4752476914
 C         -2.1476691121        2.3488096415       -0.8554663682
 C         -1.9452669600        3.6360200327       -1.6111362596
 C         -0.4703168078        4.0571019135       -1.6864232497
 C          0.2956736926        3.9503286373       -0.3707540102
 H          0.2849973491        2.9122034627       -0.0309216407
 H          1.3404108596        4.1998840407       -0.5761864936
 C         -0.1914170787        4.8736123460        0.7440962986
 H          0.5057837092        4.7632482977        1.5788324983
 H         -0.1363404983        5.9087255301        0.3987985634
 C         -1.6041020067        4.6133060443        1.2729007830
 H         -2.3582531328        5.0176337160        0.6029878285
 H         -1.7021250670        5.1579867989        2.2166141804
 C         -1.9077509342        3.1507321400        1.5805121296
 H         -2.8059339007        3.1019486849        2.2083318302
 H         -1.1014441417        2.7386661180        2.1998801682
 H         -0.4238652327        5.0831381923       -2.0566840238
 H          0.0298250241        3.4093899732       -2.4104279673
 H         -2.3083209771        3.4600794262       -2.6263178443
 H         -2.5504567403        4.4248205533       -1.1741392328
 O         -2.3437957098        1.3308866222       -1.7424208750
 C         -2.5001747296        0.0193820951       -1.3371832267
 O         -2.6091283305       -0.8002975717       -2.2701189353
 O         -2.3535340739        0.5644922152        2.2316255167
 C         -2.6716567840       -1.6770186464        0.5000489135
 C         -1.4867827571       -2.4846049555        0.0247433844
 C         -1.5782660325       -3.8055482145       -0.3941030681
 C         -0.4437771600       -4.4893533522       -0.7982322878
 C          0.7958738220       -3.8779911091       -0.7963043345
 C          0.8972317453       -2.5525734691       -0.3837083461
 C         -0.2367749059       -1.8792706161        0.0356183248
 H         -0.1462825150       -0.8567923811        0.3713394473
 N          2.1304394796       -1.8820832686       -0.4248082081
 S          2.3608453011       -0.4582275205        0.4414832270
 O          2.0834178289       -0.6703730043        1.8461468352
 O          1.6403752865        0.6081006549       -0.2061441938
 C          4.1135945103       -0.2382082169        0.2000196129
 C          4.5539834469        0.4200079905       -0.9322812365
 C          5.9172102251        0.5651698094       -1.1357856060
 C          6.8126424939        0.0509558491       -0.2097724250
 C          6.3561270542       -0.6053348684        0.9234522159
 C          4.9940671925       -0.7536611523        1.1326654150
 H          4.5928612007       -1.2449731794        2.0045365643
 H          7.0542850833       -1.0005410419        1.6435850920
 H          7.8728960419        0.1656461485       -0.3706097752
 H          6.2750124213        1.0782680141       -2.0137804564
 H          3.8193783374        0.8090473091       -1.6182742080
 H          2.9312582520       -2.4963920499       -0.3878984559
 H          1.6759085586       -4.4120570489       -1.1197057461
 H         -0.5279498956       -5.5159802998       -1.1210826629
 H         -2.5366483017       -4.2984278946       -0.4065682491
 H         -2.6269492472       -1.6301652917        1.5997249281
 C         -4.0057261364       -2.2637958436        0.0892300493
 C         -4.6777696259       -3.2931430255        0.9467812231
 C         -5.2273142770       -1.9011444724        0.8777171665
 H         -6.1525984561       -1.7341192059        0.3473426956
 H         -5.0893785926       -1.2522923978        1.7306074567
 H         -5.2311375545       -4.0843844301        0.4639084935
 H         -4.1758220954       -3.5928852750        1.8544722213
 H         -4.1088895552       -2.3425911848       -0.9870145852
