  62
        -98.94046267
 C          1.4870888919        1.2454970145       -0.0242676833
 C          2.5649597101        0.9514133306        0.8452771205
 C          3.3413057919       -0.2721390102        0.5671335909
 C          2.9683600387       -1.0520686595       -0.4643042011
 C          3.6095171842       -2.3245125328       -0.9506542583
 C          4.9069679004       -2.0714730800       -1.7355959136
 C          5.8446761094       -1.0401347045       -1.1135549902
 H          5.3140054027       -0.0926220997       -1.0035065943
 H          6.6652226107       -0.8714999980       -1.8160640367
 C          6.4538785547       -1.4400796105        0.2281464935
 H          7.1633101887       -0.6570652313        0.5082251434
 H          7.0172435090       -2.3676285452        0.1035312323
 C          5.4672326802       -1.6219798513        1.3834619611
 H          6.0524308046       -1.6610899697        2.3068843088
 H          4.9467608057       -2.5728469453        1.3086626089
 C          4.4657337700       -0.4836042347        1.5518421087
 H          5.0089913972        0.4671858921        1.5985420459
 H          3.9830943487       -0.5861325370        2.5312320012
 H          4.6348388288       -1.7141719621       -2.7318608989
 H          5.4317172499       -3.0213898806       -1.8505957010
 H          2.8915199208       -2.8055157338       -1.6187164459
 H          3.7867480599       -2.9960119243       -0.1159145665
 O          1.9136699567       -0.7363211588       -1.2679788789
 C          1.1536360866        0.4049039456       -1.0850379391
 O          0.2383286378        0.5408467320       -1.9197354789
 O          2.8771874065        1.6856762091        1.8204296145
 C          0.6473953688        2.4787487666        0.2691230932
 C         -0.6998215701        1.9897456508        0.7377372429
 C         -0.8690238783        1.6125765051        2.0672804806
 C         -2.0581794217        1.0545506820        2.4983253955
 C         -3.0941611438        0.8337841952        1.6068892082
 C         -2.9275959380        1.1948355825        0.2768181065
 C         -1.7495846607        1.7946227749       -0.1460646824
 H         -1.6358195702        2.0618385511       -1.1842643456
 N         -3.9473545827        0.9101740572       -0.6504652974
 S         -4.5746522072       -0.6418102961       -0.5982199195
 O         -4.9644337144       -0.9480825553       -1.9573288515
 O         -5.6384593626       -0.6902863705        0.3757931547
 C         -3.2440403448       -1.7109237051       -0.0680670689
 C         -2.0331815533       -1.6612667736       -0.7295764351
 C         -1.0067600158       -2.4908177792       -0.3073705670
 C         -1.2048074110       -3.3549262629        0.7579238002
 C         -2.4293907970       -3.3986186971        1.4062839343
 C         -3.4583695734       -2.5684416572        0.9925955222
 H         -4.4226183960       -2.5621711017        1.4745563299
 H         -2.5828068243       -4.0719432693        2.2341579236
 H         -0.3990985295       -3.9943489942        1.0829228799
 H         -0.0542624270       -2.4416243386       -0.8116335495
 H         -1.8771469211       -0.9760695526       -1.5481079792
 H         -3.7013375528        1.1582030644       -1.5983533567
 H         -4.0215175975        0.3797726891        1.9173001845
 H         -2.1770892931        0.7748356651        3.5338398973
 H         -0.0467477389        1.7475640046        2.7557116870
 H          1.1463880941        2.9802428288        1.1085413629
 C          0.5852376427        3.4326520726       -0.9045127433
 C          0.0635371051        4.8212562936       -0.6902011377
 C          1.5224846117        4.6004661517       -0.9505745623
 H          1.9273925644        4.8979178027       -1.9063629502
 H          2.2126112204        4.7208194482       -0.1284515201
 H         -0.5353322514        5.2739447162       -1.4656750188
 H         -0.2384599366        5.0893912444        0.3109045955
 H          0.3600567642        2.9470010644       -1.8461049766
