  62
        -98.93067281
 C         -2.3677917163       -1.1431053804       -0.0112130781
 C         -2.4988967338        0.2352904877        0.2758819200
 C         -3.8722438934        0.7418166947        0.4952857677
 C         -4.9025204696       -0.1220305136        0.4489381732
 C         -6.3737516778        0.1637223921        0.5951076358
 C         -6.9788261774        0.8132458420       -0.6593525933
 C         -6.1453558231        1.9398298396       -1.2640113344
 H         -5.1578586256        1.5552668624       -1.5257351130
 H         -6.6292917368        2.2478355704       -2.1946497531
 C         -5.9910709225        3.1787233201       -0.3849823229
 H         -5.4661634096        3.9322647060       -0.9777345771
 H         -6.9807764092        3.5744541298       -0.1466115417
 C         -5.2174966701        2.9812221401        0.9208324249
 H         -5.8366581473        2.5083360947        1.6783334344
 H         -4.9653475587        3.9747961625        1.3026987951
 C         -3.9005300765        2.2258330378        0.7723358418
 H         -3.3131143080        2.3620068523        1.6884812563
 H         -3.3049864606        2.6943012184       -0.0198054763
 H         -7.9728557063        1.1869661991       -0.4080704401
 H         -7.0922916392        0.0374088530       -1.4205795549
 H         -6.8634702147       -0.7988075615        0.7586048978
 H         -6.5506329904        0.7784407639        1.4725053720
 O         -4.7218728920       -1.4536045886        0.2108288263
 C         -3.4737280889       -1.9958257521       -0.0155113953
 O         -3.4736255003       -3.2305471648       -0.1947749418
 O         -1.5271011907        1.0319646337        0.3465671424
 C         -1.0163108801       -1.7853350509       -0.2681402962
 C          0.0039074405       -1.2930914335        0.7284833632
 C         -0.2186421262       -1.5305952993        2.0830778473
 C          0.6928676243       -1.1145979254        3.0331739015
 C          1.8593848757       -0.4742586765        2.6525276301
 C          2.0886880729       -0.2292115319        1.3046645866
 C          1.1624694470       -0.6337501404        0.3532565573
 H          1.3597698141       -0.4088307113       -0.6815111086
 N          3.2510363935        0.4358201428        0.8821469671
 S          3.9613822112       -0.0550768052       -0.5678034457
 O          3.3553510928        0.6638394061       -1.6600576856
 O          3.9402274530       -1.4977229393       -0.6648986233
 C          5.6325998070        0.5205504011       -0.3254382260
 C          6.5884745145       -0.3590611493        0.1469184149
 C          7.8777750113        0.1027796136        0.3601978149
 C          8.1871039050        1.4297025295        0.1017910696
 C          7.2173235858        2.3006092589       -0.3726218781
 C          5.9264920460        1.8451704267       -0.5892006131
 H          5.1425565531        2.4819459782       -0.9650952111
 H          7.4623286887        3.3307499331       -0.5752479250
 H          9.1911056838        1.7867445091        0.2682824691
 H          8.6346208535       -0.5725287774        0.7254752371
 H          6.3040782341       -1.3837332699        0.3248739231
 H          3.9330000425        0.5486762612        1.6193924979
 H          2.5774914134       -0.1560900495        3.3931590492
 H          0.5010794465       -1.3005867174        4.0794563777
 H         -1.1256879687       -2.0412628574        2.3792222478
 H         -1.1726328024       -2.8610825379       -0.0774608076
 C         -0.5395990534       -1.6678873458       -1.7082469645
 C         -1.5119134899       -1.6053337940       -2.8469407965
 C         -0.6876802630       -0.4041937541       -2.4984683973
 H          0.1192596473       -0.1179639262       -3.1579669202
 H         -1.1685429548        0.4314984689       -2.0150843181
 H         -1.2777633447       -2.1482534136       -3.7502717784
 H         -2.5648492125       -1.5922341965       -2.6048172252
 H          0.3662470726       -2.2431373316       -1.8811790314
