  62
        -98.94848811
 C         -2.3568104834       -0.6195967393        0.1714708288
 C         -1.5447780169       -0.0129720329       -0.8162929678
 C         -1.6848210853        1.4428841436       -0.9643303496
 C         -2.5339058786        2.1100389820       -0.1635053369
 C         -2.7756108475        3.5908400671       -0.2055231066
 C         -1.8569077097        4.3469688885        0.7626399967
 C         -0.3795236698        3.9731383648        0.6392572374
 H          0.1755126939        4.6140370237        1.3288074542
 H         -0.2317747366        2.9452036391        0.9799521391
 C          0.2001755218        4.1218788107       -0.7743098561
 H         -0.4365524402        4.7753413690       -1.3727291952
 H          1.1790630393        4.6002150957       -0.6982703180
 C          0.4099452197        2.7942155646       -1.5048351824
 H          1.0636095137        2.9736932144       -2.3629413049
 H          0.9249854546        2.1010147973       -0.8351270941
 C         -0.8603469727        2.1112017220       -2.0284965384
 H         -1.4624815320        2.8315250017       -2.5870359967
 H         -0.5525747680        1.3155613607       -2.7132481704
 H         -2.1780233485        4.1340711740        1.7850912107
 H         -1.9783171188        5.4176145860        0.5845642039
 H         -2.6194683700        3.9474192580       -1.2220399881
 H         -3.8137510384        3.7742792934        0.0784988364
 O         -3.2673668750        1.5017057132        0.8044345640
 C         -3.1753808724        0.1356666019        1.0134349100
 O         -3.8674637101       -0.2846826253        1.9636878235
 H         -0.3217595682       -1.0409864913        1.8381319517
 C          0.0345671944       -1.8686892299        1.2412515838
 C         -0.8561273373       -2.5682931941        0.4356772525
 C         -0.3725119843       -3.6289515306       -0.3191676816
 C          0.9709922770       -3.9618334672       -0.2804571608
 C          1.8616069736       -3.2304968075        0.4834148396
 C          1.3862352059       -2.1664231037        1.2414874853
 N          2.2530237347       -1.3590482921        2.0094215750
 S          2.3935924116        0.2460885666        1.5419407722
 O          3.3172511990        0.8352660532        2.4883494684
 O          1.0893125836        0.8499763599        1.4651644684
 C          3.1706478708        0.1792789740       -0.0636254809
 C          4.5173149539        0.4769450489       -0.1533642012
 C          5.1475269504        0.3801060427       -1.3829228953
 C          4.4247860424       -0.0206202755       -2.4968040598
 C          3.0762964164       -0.3213099569       -2.3878566223
 C          2.4361095195       -0.2241239912       -1.1610707292
 H          1.3844396862       -0.4478739885       -1.0642618762
 H          2.5070300596       -0.6337425671       -3.2485584752
 H          4.9140862623       -0.0983061559       -3.4549669265
 H          6.1962572178        0.6152102563       -1.4680642823
 H          5.0354470203        0.7861368783        0.7401241349
 H          3.1799044168       -1.7488177243        2.1174015249
 H          2.9143613467       -3.4705757563        0.4892262130
 H          1.3325158591       -4.7885401108       -0.8727386527
 H         -1.0412571234       -4.1825829030       -0.9573448341
 C         -2.2957165527       -2.1145193218        0.4410050674
 H         -2.6804817719       -2.2334259393        1.4681262923
 C         -3.1965270597       -2.9460564546       -0.4609543921
 C         -4.4137896385       -2.3501977978       -1.1012614523
 C         -3.2400514873       -2.7428019353       -1.9445960723
 H         -3.3354955571       -3.6115668758       -2.5792932038
 H         -2.6191647605       -1.9636049929       -2.3568040610
 H         -5.3102379067       -2.9501217989       -1.1502392809
 H         -4.6022346341       -1.2986393075       -0.9387255632
 H         -3.2989183173       -3.9658608459       -0.1029875003
 O         -0.7502165819       -0.6490251603       -1.5571546435
