  62
        -98.93887444
 C         -1.5421554259       -1.4303020157       -0.2668758844
 C         -1.4163850934       -0.0685951190       -0.6241166373
 C         -2.3104345541        0.8832123948        0.0625798333
 C         -3.1530111405        0.4414047996        1.0128963384
 C         -4.1152270894        1.1807068448        1.9197118191
 C         -4.5216445145        2.6218951666        1.6224369326
 C         -5.3550959127        2.8039791129        0.3545872248
 H         -6.3365537444        2.3511671919        0.5160803952
 H         -5.5041457484        3.8742804700        0.1961671818
 C         -4.7660974245        2.1905109653       -0.9129861059
 H         -5.4553676123        2.3982325243       -1.7358780862
 H         -4.7125934448        1.1054148393       -0.8038976264
 C         -3.3899371112        2.7172093662       -1.3148947094
 H         -3.4181645637        3.8064759342       -1.3808917375
 H         -3.1679693947        2.3260936538       -2.3111948942
 C         -2.2274106121        2.3123866051       -0.3911358163
 H         -1.2976189054        2.4028343482       -0.9595373650
 H         -2.1438628360        2.9780864905        0.4649863536
 H         -3.6441776380        3.2615582600        1.5977642951
 H         -5.1300037166        2.9530499964        2.4686704367
 H         -3.6619049523        1.1484270859        2.9171403848
 H         -5.0143866131        0.5580525832        1.9696607643
 O         -3.2169334444       -0.8798491306        1.3526755265
 C         -2.4328224977       -1.8317287724        0.7311595605
 O         -2.6236341965       -2.9950507940        1.1422510354
 O         -0.5993225560        0.3679711146       -1.4781095411
 C         -0.6975927698       -2.5495182063       -0.8583083157
 C          0.5825353010       -2.6933250983       -0.0686187184
 C          0.9299369768       -3.9076264048        0.5100314979
 C          2.0788762926       -4.0176709400        1.2730266481
 C          2.8820698119       -2.9144494280        1.4939979221
 C          2.5437236271       -1.6934539761        0.9183307710
 C          1.4176285967       -1.5998909670        0.1154532510
 H          1.1631575066       -0.6548475278       -0.3323327008
 N          3.3400439521       -0.5610534463        1.1384248138
 S          2.6820524375        0.9637491314        1.4072652849
 O          3.4759095412        1.5144462191        2.4891833667
 O          1.2589528067        0.8995623591        1.6319896198
 C          3.0879140459        1.8531586512       -0.0820665469
 C          4.3601308117        2.3869066316       -0.1745578301
 C          4.7236175962        3.0687466641       -1.3235562007
 C          3.8126778914        3.2060477621       -2.3604646857
 C          2.5411861579        2.6660360615       -2.2523381114
 C          2.1703293335        1.9818711497       -1.1039433646
 H          1.1856846251        1.5509773986       -1.0052001285
 H          1.8282140621        2.7676292009       -3.0551187742
 H          4.0933368466        3.7372712260       -3.2563588608
 H          5.7121576868        3.4907099748       -1.4075070643
 H          5.0304750583        2.2693640549        0.6607007407
 H          4.1174432992       -0.7204678261        1.7628927886
 H          3.7625073065       -2.9915209303        2.1142941716
 H          2.3398716860       -4.9658081570        1.7184368062
 H          0.2818919082       -4.7616421616        0.3782694753
 H         -1.2809626266       -3.4695942857       -0.7124935567
 C         -0.4091692572       -2.3978375942       -2.3382586815
 C         -0.1110409123       -3.6226842779       -3.1476059101
 C         -1.4094169802       -2.8976965424       -3.3347459777
 H         -1.5617286270       -2.3294409059       -4.2398020811
 H         -2.3098832950       -3.3559822769       -2.9513926684
 H          0.6322753952       -3.5549978477       -3.9268180145
 H         -0.1327050303       -4.5761582642       -2.6418194138
 H          0.1241710198       -1.4893506902       -2.5823483065
