  62
        -98.93899039
 C         -1.8814963581        0.7795177704        0.0989782054
 C         -2.4408952958        0.1165941576       -1.0166658210
 C         -3.5354726887       -0.8288080832       -0.7383660924
 C         -3.9071524408       -1.0381565917        0.5367057240
 C         -5.0265207930       -1.9125546337        1.0299211961
 C         -6.3170082733       -1.0938080222        1.2043440289
 C         -7.1814393461       -0.9786438958       -0.0506656400
 H         -7.6437817268       -1.9461593902       -0.2573885458
 H         -7.9850211224       -0.2730167566        0.1722722347
 C         -6.4491646909       -0.5077928179       -1.3100468586
 H         -7.1951733026       -0.1140739439       -2.0030981924
 H         -5.7760824031        0.3138952900       -1.0588221976
 C         -5.6670383857       -1.6300038597       -2.0087256128
 H         -5.9330927397       -1.6504839257       -3.0676074802
 H         -5.9757289635       -2.5897481222       -1.5945265667
 C         -4.1373116105       -1.5066195886       -1.9392734026
 H         -3.6946488714       -2.5039173417       -2.0364145911
 H         -3.7802816219       -0.9234079523       -2.7939994707
 H         -6.0359238812       -0.0962010855        1.5514938640
 H         -6.9203818925       -1.5541862120        1.9893204399
 H         -4.7189167261       -2.2900996169        2.0074098955
 H         -5.1821183992       -2.7548932021        0.3622677904
 O         -3.3127269261       -0.4091180519        1.5873055237
 C         -2.2938618167        0.5109869809        1.4041831330
 O         -1.8500980395        1.0041247391        2.4572937739
 O         -2.0425025019        0.3055900929       -2.1990413175
 C         -0.7638357910        1.7824826297       -0.1248967031
 C          0.5008967100        1.2939496789        0.5377103901
 C          1.2678982701        2.0667701019        1.3985013387
 C          2.4081260745        1.5419311482        1.9837370490
 C          2.8140466839        0.2483733926        1.7156816116
 C          2.0669349395       -0.5254598801        0.8352825346
 C          0.9262900425        0.0017696512        0.2508622344
 H          0.3425541824       -0.6042107231       -0.4311503882
 N          2.4818766934       -1.8335288074        0.5370600984
 S          4.1099573216       -2.1038687504        0.2640325889
 O          4.1600717423       -3.2487937945       -0.6182702439
 O          4.7957115808       -2.2528806035        1.5236062946
 C          4.6995180641       -0.6417697180       -0.5723963827
 C          5.7156745097        0.1071873272       -0.0149391880
 C          6.1396148444        1.2535931384       -0.6679026006
 C          5.5399228851        1.6310896801       -1.8590692145
 C          4.5227308198        0.8656373485       -2.4088126110
 C          4.0966810055       -0.2827196124       -1.7617468239
 H          3.3104099681       -0.8999764571       -2.1665571507
 H          4.0568018241        1.1600564497       -3.3355621579
 H          5.8659481657        2.5266785956       -2.3638651035
 H          6.9316279113        1.8494101488       -0.2438041892
 H          6.1506579159       -0.2210340200        0.9150209433
 H          1.9061283122       -2.3056258270       -0.1437979360
 H          3.6867229434       -0.1800073071        2.1812258486
 H          2.9865358848        2.1487440809        2.6632705688
 H          0.9671826505        3.0763061574        1.6236337008
 H         -0.5958413767        1.7916862319       -1.2120496406
 C         -1.1906685628        3.1667908163        0.3136316045
 C         -0.5821031373        4.3790399602       -0.3236451319
 C         -2.0011434205        4.0057830621       -0.6269109354
 H         -2.7954417564        4.6141241391       -0.2209523176
 H         -2.2258667403        3.5877805163       -1.5974586538
 H         -0.4026552114        5.2489288375        0.2897413410
 H          0.1582044437        4.2202543038       -1.0928077957
 H         -1.4440733709        3.2111484342        1.3667049520
