  62
        -98.93358261
 C          1.4210283555        1.4481109919        0.6187578180
 C          1.7524114016        0.8167216882       -0.6047526778
 C          2.8684017164       -0.1565694815       -0.5588709123
 C          3.3898377260       -0.5114892087        0.6292368531
 C          4.5573099927       -1.4042690907        0.9967603595
 C          5.2880572820       -2.2147522955       -0.0696667280
 C          4.4964249530       -3.4092994142       -0.6000989307
 H          5.0472909456       -3.8488834274       -1.4341820734
 H          4.4342747972       -4.1614288494        0.1903536647
 C          3.0741255511       -3.0886156824       -1.0494651177
 H          2.5976875568       -4.0230579191       -1.3574809722
 H          2.5088966240       -2.6926753375       -0.2044246234
 C          2.9735706192       -2.1079324738       -2.2147796336
 H          3.6007205296       -2.4531509340       -3.0392410012
 H          1.9393405153       -2.1106387137       -2.5694488455
 C          3.3553614540       -0.6534030785       -1.8927194448
 H          4.4314047921       -0.5085105478       -1.9725154138
 H          2.8856745320       -0.0118385979       -2.6446627541
 H          6.1983063668       -2.6003776367        0.3970396114
 H          5.6018795123       -1.5676343812       -0.8835114108
 H          5.2801919405       -0.7413255825        1.4852038508
 H          4.1912910037       -2.0807030755        1.7759688306
 O          2.8897707443       -0.0187691433        1.8020178426
 C          1.9483363628        0.9913925489        1.8288134885
 O          1.6532441138        1.3822769576        2.9763938386
 H         -1.5876727379        1.2024332487        1.6299501643
 C         -1.7985866894        1.5981499727        0.6437949290
 C         -0.8335284065        2.3658864242        0.0034984818
 C         -1.1103902395        2.8607442034       -1.2643019449
 C         -2.3229648026        2.5889811088       -1.8731353213
 C         -3.2883105061        1.8366852732       -1.2278609578
 C         -3.0207525624        1.3366757604        0.0398984075
 N         -4.0087342111        0.5737676798        0.7025406470
 S         -4.3851510480       -0.9225326489        0.0546562764
 O         -4.7632535968       -0.7536060795       -1.3238474167
 O         -5.3825527257       -1.4910847928        0.9313566575
 C         -2.8732052590       -1.8597647936        0.1792373395
 C         -2.7728884433       -2.8486655944        1.1378586137
 C         -1.5733114479       -3.5267559456        1.2799176970
 C         -0.4924894726       -3.1893372501        0.4796750633
 C         -0.6065626221       -2.1870431722       -0.4710020707
 C         -1.8087913629       -1.5178183764       -0.6315934928
 H         -1.9209119688       -0.7409145382       -1.3706756245
 H          0.2358300636       -1.9079306852       -1.0831205088
 H          0.4447730150       -3.7107354707        0.5957067536
 H         -1.4810537131       -4.3089037348        2.0162781874
 H         -3.6361194982       -3.0693906819        1.7449351374
 H         -3.8301127719        0.4647829512        1.6914377348
 H         -4.2341174689        1.6112982623       -1.6926820038
 H         -2.5224269009        2.9726547605       -2.8621946054
 H         -0.3630183494        3.4390233265       -1.7820261380
 C          0.4687123745        2.6283501026        0.7151404777
 H          0.2462393023        2.7160206934        1.7906514359
 C          1.0948660264        3.9533689300        0.2972812278
 C          2.5139451011        4.2730104242        0.6593589498
 C          2.1326343517        4.0756584125       -0.7756011709
 H          2.0979140973        4.9427518785       -1.4190118493
 H          2.4574125788        3.1768730595       -1.2748752908
 H          2.7482314480        5.2696909840        1.0014939612
 H          3.0880770401        3.4976394906        1.1464789072
 H          0.3832618390        4.7698531623        0.3754114569
 O          1.1879440379        1.0603596745       -1.7001951746
