  62
        -98.93601929
 C         -0.8204419645       -1.7328539585        0.3497238760
 C         -1.5572108411       -0.7876946299        1.1036557582
 C         -2.7648439939       -0.2133851757        0.4780953380
 C         -3.0772014613       -0.5816263615       -0.7780118415
 C         -4.2475963947       -0.1508438358       -1.6234727006
 C         -4.0876273415        1.2651713997       -2.1941973656
 C         -3.6217077744        2.3057817599       -1.1809517411
 H         -2.6531553508        2.0018713762       -0.7813080545
 H         -3.4752111010        3.2466838527       -1.7171247576
 C         -4.5913050023        2.5683904715       -0.0307785611
 H         -4.2094241372        3.4257065633        0.5288058056
 H         -5.5646801054        2.8495766301       -0.4384222950
 C         -4.7895569534        1.4152297992        0.9571690501
 H         -5.4892179807        0.6777116565        0.5722811601
 H         -5.2481747014        1.8336302277        1.8577738148
 C         -3.5019252203        0.7277604581        1.3999271160
 H         -3.7107059628        0.1441932115        2.3045887740
 H         -2.7727884868        1.4847050992        1.7090173566
 H         -5.0423684570        1.5706950479       -2.6261184220
 H         -3.3496372482        1.2254251996       -2.9989979375
 H         -4.3056513946       -0.8568218405       -2.4550861363
 H         -5.1693512845       -0.2335830772       -1.0551107670
 O         -2.2921030832       -1.4344583005       -1.4957276593
 C         -1.1489160364       -2.0173586691       -0.9762829969
 O         -0.5436439350       -2.7448790305       -1.7845442576
 O         -1.2265414904       -0.4319192692        2.2669984038
 C          0.4133928183       -2.3401490304        0.9933439670
 C          1.6048484246       -2.1241701533        0.0966032358
 C          2.3023945894       -3.1476710835       -0.5297192015
 C          3.3682406362       -2.8545506215       -1.3624477628
 C          3.7698593731       -1.5476951401       -1.5701590864
 C          3.0792621459       -0.5156765852       -0.9446806183
 C          2.0033322722       -0.8117701988       -0.1255609572
 H          1.4596891926       -0.0095281192        0.3527151208
 N          3.4432660721        0.8271990708       -1.1350228594
 S          3.4592995530        1.8547065236        0.1873343518
 O          4.3377494969        2.9360388394       -0.2072942367
 O          3.8241262858        1.1533226451        1.3962281521
 C          1.8015691777        2.4894684082        0.3109752199
 C          1.1422553572        2.4391661420        1.5226960922
 C         -0.1261119250        2.9883172126        1.6204182464
 C         -0.7083195859        3.5772576957        0.5092608578
 C         -0.0357992511        3.6138370401       -0.7033755815
 C          1.2330844462        3.0681301403       -0.8066582483
 H          1.7899517242        3.0839129767       -1.7288182761
 H         -0.4976506134        4.0668133811       -1.5659174996
 H         -1.6924533531        4.0115802376        0.5884448798
 H         -0.6510849125        2.9462717951        2.5615694348
 H          1.6256694365        1.9643708698        2.3619822128
 H          4.2512420176        0.9673966176       -1.7243052169
 H          4.6056624880       -1.3237405846       -2.2158865611
 H          3.8976330791       -3.6568606430       -1.8539846707
 H          1.9956015400       -4.1705693853       -0.3858489267
 H          0.5689153920       -1.7333850327        1.9016201264
 C          0.2534070797       -3.7772553267        1.4627617204
 C         -1.0786389488       -4.2890790478        1.9219324879
 C         -0.4607620266       -4.8275908491        0.6682080897
 H         -0.0662801924       -5.8333095260        0.6861170140
 H         -0.8817489092       -4.5415991569       -0.2820574041
 H         -1.1148274400       -4.9230384176        2.7951330990
 H         -1.9253398315       -3.6244275293        1.8273687165
 H          1.1168590775       -4.1075424487        2.0331602389
