  62
        -98.94019977
 C         -1.7563962869       -1.0316513914       -0.1864016897
 C         -3.1045379026       -1.2747843951        0.1584799815
 C         -4.0895630614       -0.2468070317       -0.2315208574
 C         -3.6570258745        0.8476576100       -0.8854876668
 C         -4.4590010545        2.0359153476       -1.3460628392
 C         -4.8308760228        2.9834807781       -0.1943193962
 C         -5.3359553820        2.2916558831        1.0689522247
 H         -4.5730165211        1.5983211797        1.4274399253
 H         -5.4648435720        3.0577977638        1.8380612160
 C         -6.6636478678        1.5527106217        0.9196076302
 H         -6.9483191625        1.1937906838        1.9120290925
 H         -7.4307681016        2.2567588446        0.5895225383
 C         -6.6600529430        0.3554134852       -0.0335401246
 H         -6.7054234310        0.6774775482       -1.0704518716
 H         -7.5760177469       -0.2124682678        0.1542755608
 C         -5.4992536975       -0.6140765747        0.1655264586
 H         -5.7233670462       -1.5414325918       -0.3756364675
 H         -5.4507427463       -0.9039897545        1.2214401520
 H         -5.5857449551        3.6841707967       -0.5550663155
 H         -3.9393940031        3.5556260194        0.0736619735
 H         -3.8319941105        2.5804601704       -2.0555170888
 H         -5.3466385507        1.7045479465       -1.8765960237
 O         -2.3422699051        1.0402359610       -1.1946325674
 C         -1.3648067988        0.1208468083       -0.8643714759
 O         -0.2144601898        0.4392528667       -1.2197105447
 O         -3.4786332357       -2.3071629406        0.7787686698
 C         -0.7024911947       -2.0609976764        0.1774630431
 C          0.3773969205       -1.4248977079        1.0160036151
 C          0.0112394021       -0.7443162835        2.1756294771
 C          0.9632181283       -0.1440483692        2.9754866324
 C          2.3033262770       -0.2017447802        2.6319129258
 C          2.6803867995       -0.8822129353        1.4817367079
 C          1.7214170180       -1.4986110326        0.6875193067
 H          2.0470008902       -2.0141033558       -0.1997704417
 N          4.0368596462       -0.9820957021        1.1171565933
 S          4.5349384465       -0.4356943130       -0.3858214762
 O          3.8507531512       -1.1594538951       -1.4244643974
 O          5.9761299528       -0.5642483179       -0.3603351325
 C          4.0979949370        1.2938902022       -0.4039703630
 C          2.7886200042        1.6648551127       -0.6349212439
 C          2.4612497350        3.0114074624       -0.5768509568
 C          3.4353028547        3.9552544688       -0.2919044204
 C          4.7460281441        3.5638652856       -0.0622837884
 C          5.0810389557        2.2210550504       -0.1131223748
 H          6.0865886090        1.8703662417        0.0550023708
 H          5.5036374914        4.2988826830        0.1572785778
 H          3.1707528513        5.0002418351       -0.2499728450
 H          1.4383654230        3.3026814757       -0.7565234321
 H          2.0372574250        0.9240205659       -0.8593572198
 H          4.6714689412       -0.6306802600        1.8210950242
 H          3.0500053605        0.2717261987        3.2513834808
 H          0.6617443843        0.3791268516        3.8703530400
 H         -1.0366917598       -0.6932476211        2.4387924022
 H         -1.2235711527       -2.8075324747        0.7954066001
 C         -0.1819470022       -2.7439398263       -1.0694862047
 C          0.3605293721       -4.1386493877       -0.9921686026
 C         -0.9599536300       -3.8833580534       -1.6530014824
 H         -1.0255511545       -3.9665150121       -2.7275658860
 H         -1.8588218429       -4.1854047220       -1.1353694211
 H          1.2065570144       -4.3949801248       -1.6122097452
 H          0.3595480058       -4.6221387825       -0.0268930250
 H          0.2877486308       -2.0545715525       -1.7633810228
