  62
        -98.94387992
 C          1.7959632199        1.1853768037        0.3670226427
 C          1.9912048606        0.2387046660       -0.6671145989
 C          3.3850931492        0.0328443318       -1.0893592213
 C          4.3646590705        0.7476462261       -0.5062967129
 C          5.8285768989        0.5978349657       -0.8011210893
 C          6.4804336330       -0.4289713468        0.1355845433
 C          5.7177155876       -1.7505101969        0.2295250270
 H          6.2844991823       -2.4071995546        0.8930806063
 H          4.7499013564       -1.5723491747        0.7040503352
 C          5.4966851491       -2.4526316045       -1.1175346442
 H          6.1877936241       -2.0542377606       -1.8612143510
 H          5.7229980178       -3.5145502014       -1.0006214359
 C          4.0670551999       -2.3592336216       -1.6545606168
 H          3.3611720813       -2.6704401312       -0.8797400784
 H          3.9688430194       -3.0631287839       -2.4855338284
 C          3.6363232034       -0.9802825020       -2.1703651236
 H          4.3722944448       -0.6085312349       -2.8863492400
 H          2.6818608665       -1.1052834052       -2.6906221653
 H          7.4972348346       -0.6181076607       -0.2131498763
 H          6.5392112306        0.0039877798        1.1368099763
 H          5.9557199520        0.2921514206       -1.8376924031
 H          6.3097675166        1.5662996505       -0.6550703236
 O          4.1338917490        1.6651848303        0.4671837455
 C          2.8517219975        1.8960584474        0.9379928160
 O          2.7829355498        2.7425253044        1.8519299915
 H         -2.0594789984        0.3012646208        0.3660961153
 C         -1.4705512543       -0.2586239951        1.0720090054
 C         -0.2071842480        0.1813805164        1.4334441297
 C          0.5207274837       -0.5670860197        2.3557994008
 C          0.0017721473       -1.7297553657        2.8897833114
 C         -1.2543826674       -2.1734557914        2.5134869174
 C         -1.9923793079       -1.4330866136        1.5993342554
 N         -3.2874683826       -1.8316767821        1.2326676649
 S         -3.7533719655       -1.7998306075       -0.3780853078
 O         -4.9116610700       -2.6688096498       -0.4244476994
 O         -2.6676265691       -2.1466441894       -1.2630186506
 C         -4.2910487426       -0.1277846410       -0.6643737026
 C         -5.2254466165        0.4195271617        0.1927503016
 C         -5.6793431463        1.7064691100       -0.0470409103
 C         -5.1999190167        2.4169683607       -1.1373622558
 C         -4.2634359506        1.8516770175       -1.9899707677
 C         -3.8023006550        0.5658082506       -1.7534929056
 H         -3.0646002526        0.0912745091       -2.3818260212
 H         -3.8887470147        2.4057659007       -2.8362192581
 H         -5.5548207101        3.4184646503       -1.3236880496
 H         -6.4051384584        2.1515813626        0.6140987162
 H         -5.5782016730       -0.1671233437        1.0242599633
 H         -3.6040594913       -2.6813023311        1.6781676131
 H         -1.6597560496       -3.0854968301        2.9251954590
 H          0.5799289263       -2.3000077571        3.6015387900
 H          1.5037109889       -0.2211221010        2.6469822742
 C          0.3986288113        1.4552179248        0.8960112603
 H          0.5271338440        2.1484210035        1.7405620506
 C         -0.4488886628        2.1324731497       -0.1601305858
 C         -1.5567099828        3.0542041833        0.2503679833
 C         -0.3065929803        3.6101938413       -0.3608004408
 H         -0.3506723370        3.9995423916       -1.3667024372
 H          0.3919766526        4.1309033617        0.2781873527
 H         -1.7115213745        3.2039560554        1.3080757805
 H         -2.4637035692        3.0636252223       -0.3346201321
 H         -0.5884716426        1.5177858668       -1.0423618116
 O          1.0537498145       -0.4012312129       -1.2115873788
