  62
        -98.93754805
 C         -1.8517685838       -0.4180150267       -0.5730312014
 C         -2.9028667344       -1.2536472560       -0.1266536379
 C         -4.2569441336       -0.6850375329       -0.1948110618
 C         -4.4189678637        0.5619765148       -0.6737221970
 C         -5.7213176269        1.3087185734       -0.7339816087
 C         -6.0890139545        1.8407257598        0.6659793908
 C         -7.3511910179        1.2195958723        1.2647687321
 H         -7.3872506577        1.5044470524        2.3184276405
 H         -8.2262201636        1.6535889339        0.7763986255
 C         -7.4616704368       -0.3042814520        1.1558681609
 H         -7.7944090861       -0.5773859096        0.1533954617
 H         -8.2527699493       -0.6153018534        1.8414911355
 C         -6.1879096279       -1.0943994409        1.4825563229
 H         -5.5338756123       -0.5161510709        2.1354785091
 H         -6.4770264057       -1.9906980295        2.0350815829
 C         -5.3918777670       -1.5654196900        0.2509870907
 H         -4.9238622474       -2.5262413884        0.4847416162
 H         -6.0769127288       -1.7291860630       -0.5854281603
 H         -5.2423401017        1.6633701261        1.3324736678
 H         -6.2289679043        2.9217356937        0.6189163684
 H         -6.5032682502        0.6542820289       -1.1127986360
 H         -5.5891222304        2.1356451164       -1.4319765220
 O         -3.3835490882        1.3329490104       -1.0971541783
 C         -2.0759262030        0.8697387195       -1.0583561898
 O         -1.2311909234        1.6836267865       -1.4763465973
 O         -2.7157844054       -2.4209016394        0.3111040907
 C         -0.4286918842       -0.9476720610       -0.5301473457
 C          0.4207715774       -0.0495614120        0.3333915477
 C          0.0256363333        0.1670986110        1.6522291890
 C          0.7456283386        1.0069012295        2.4777955040
 C          1.8840396086        1.6410860121        2.0102070912
 C          2.2910245389        1.4283457472        0.6995175645
 C          1.5645613704        0.5808063533       -0.1282946779
 H          1.8950763828        0.4515802380       -1.1445730872
 N          3.4325095363        2.0734885247        0.1972299275
 S          4.5589357921        1.2310987029       -0.7044326947
 O          5.7297540228        2.0802154177       -0.7031476267
 O          4.0214066240        0.8882357129       -1.9955383899
 C          4.8747487704       -0.2396893784        0.2530326570
 C          4.2143120835       -1.4117072255       -0.0533797200
 C          4.4193191658       -2.5236232770        0.7485089993
 C          5.2745182342       -2.4443680987        1.8364694326
 C          5.9343607542       -1.2599837699        2.1283476593
 C          5.7306423854       -0.1442126464        1.3333502821
 H          6.2317641144        0.7920103814        1.5189197828
 H          6.6024449742       -1.2031039866        2.9725654570
 H          5.4290720898       -3.3118761100        2.4584925366
 H          3.9085223266       -3.4458139707        0.5213964083
 H          3.5605252929       -1.4361636997       -0.9091875591
 H          3.8896883555        2.6843054299        0.8582908949
 H          2.4444198836        2.3055629567        2.6502118793
 H          0.4216679677        1.1700229048        3.4945855900
 H         -0.8659544381       -0.3261310244        2.0149029348
 H         -0.5007503654       -1.9300447522       -0.0406016896
 C          0.1054240058       -1.1432631201       -1.9325156309
 C          1.1382474307       -2.1943437789       -2.2041476717
 C         -0.2684910440       -2.3838816446       -2.6849071714
 H         -0.4708656236       -2.3035045084       -3.7424220911
 H         -0.8906212218       -3.1045068548       -2.1744279931
 H          1.9081460934       -1.9837033595       -2.9320419437
 H          1.4650602560       -2.7969226159       -1.3699871559
 H          0.1560430408       -0.2188334303       -2.4974690709
