  62
        -98.93789222
 C         -0.7759790281       -1.4866025447        0.2095590511
 C         -1.7887870399       -1.0867999060        1.1139769726
 C         -2.9278083505       -0.3254464677        0.5610498498
 C         -2.8941328162        0.0311134820       -0.7364182160
 C         -3.9564651043        0.7257010271       -1.5519098477
 C         -4.1238762362        2.2236337815       -1.2546902896
 C         -4.0794003616        2.5967184510        0.2242598398
 H         -3.1480003067        2.2350380640        0.6640483586
 H         -4.0728253453        3.6877311893        0.2951449472
 C         -5.2543255280        2.0801138700        1.0498686721
 H         -5.1646187911        2.5087962137        2.0514333449
 H         -6.1882634929        2.4439597304        0.6160941053
 C         -5.3375933553        0.5592078476        1.1920956071
 H         -5.7375828803        0.0984188934        0.2928536949
 H         -6.0489669712        0.3446952331        1.9947027357
 C         -4.0208756123       -0.1070115943        1.5796376004
 H         -4.2383737272       -1.1020132253        1.9865327071
 H         -3.5660579370        0.4446250766        2.4110932160
 H         -5.0731589116        2.5520606737       -1.6816211265
 H         -3.3264406258        2.7663889306       -1.7669201090
 H         -3.6607566618        0.6113647200       -2.5970698772
 H         -4.9026056887        0.2057973176       -1.4224794073
 O         -1.8156074378       -0.2368506314       -1.5266488753
 C         -0.7469612690       -1.0101639873       -1.1010114142
 O          0.1290612893       -1.1819107285       -1.9663367324
 O         -1.7702730718       -1.3825642930        2.3400091952
 C          0.2799669426       -2.4502421984        0.7170813563
 C          1.6578215071       -2.0940307184        0.2226473927
 C          2.3698806893       -2.8792297627       -0.6759549047
 C          3.6404372146       -2.5091955129       -1.0767591609
 C          4.2252872448       -1.3520738538       -0.5972055433
 C          3.5211753415       -0.5582531556        0.3004389517
 C          2.2505095380       -0.9345836994        0.7070581906
 H          1.7164509740       -0.3159284273        1.4144660244
 N          4.0919006001        0.6182782668        0.8107831317
 S          3.1230320746        1.9365256989        1.1225178119
 O          4.0257933176        3.0675247862        1.0613656367
 O          2.4326727307        1.7636993669        2.3769487664
 C          1.9483629723        2.0365727978       -0.2151164923
 C          0.6254636282        2.2866742589        0.0824354571
 C         -0.2806729195        2.4257691336       -0.9549020868
 C          0.1440569711        2.2924148429       -2.2664075431
 C          1.4747490954        2.0311795891       -2.5494188284
 C          2.3897505392        1.9114515840       -1.5169382365
 H          3.4318004736        1.7193830281       -1.7139121406
 H          1.8000251999        1.9162455282       -3.5706383610
 H         -0.5687582347        2.3818829901       -3.0708629515
 H         -1.3154919901        2.6269848775       -0.7319704792
 H          0.3287355746        2.3599558314        1.1174880617
 H          4.9727848450        0.8827875957        0.3950284556
 H          5.2164911741       -1.0622701757       -0.9109694689
 H          4.1801746366       -3.1264721830       -1.7785943237
 H          1.9204975855       -3.7709486553       -1.0798530919
 H          0.2720529652       -2.3197700578        1.8123083500
 C         -0.0734632880       -3.9083511148        0.4467637291
 C         -1.4970849105       -4.3754209344        0.4284891128
 C         -0.7008196805       -4.3521504997       -0.8397890783
 H         -0.3894265516       -5.2942212077       -1.2665570705
 H         -0.9255196589       -3.5927053595       -1.5733162783
 H         -1.7270034898       -5.3306257127        0.8762267474
 H         -2.2717953336       -3.6348092994        0.5620382143
 H          0.6452438477       -4.5856200646        0.8980235287
