  62
        -98.94521035
 C          2.0852100258        1.4601756567       -0.0115173303
 C          1.8951943747        0.4667626972       -1.0024706708
 C          2.7875248028       -0.6998862517       -0.9203032009
 C          3.6954207370       -0.7743262142        0.0692001807
 C          4.6150190038       -1.9358784703        0.3070983009
 C          3.9784598814       -2.9642582065        1.2528067306
 C          2.5555746400       -3.3672027674        0.8643920340
 H          2.2285840713       -4.1220596971        1.5825518025
 H          1.8951512719       -2.5044962844        0.9785100228
 C          2.4210799841       -3.9210787556       -0.5608184012
 H          1.7965000365       -4.8161337928       -0.5342555049
 H          3.4000346108       -4.2235783631       -0.9344235628
 C          1.7753322218       -2.9549861838       -1.5554758426
 H          1.5304970016       -3.5138970428       -2.4624897547
 H          0.8400792737       -2.5714327024       -1.1408370576
 C          2.6370813989       -1.7586976108       -1.9765372942
 H          3.6160637717       -2.1068865977       -2.3123732893
 H          2.1384612629       -1.2718819949       -2.8197525853
 H          3.9517499811       -2.5385525346        2.2585437584
 H          4.6162248256       -3.8498661958        1.2763473087
 H          4.8567414628       -2.4030958294       -0.6456280243
 H          5.5340855688       -1.5595847614        0.7595510527
 O          3.8448262044        0.1951948266        1.0071120567
 C          3.0503981355        1.3268173881        0.9919246826
 O          3.2964044937        2.1359195613        1.9086742568
 H         -0.9027688338        1.7745741831       -1.3510973437
 C         -1.1230271564        1.9102559612       -0.3039846592
 C         -0.1372466135        2.3908816928        0.5451630580
 C         -0.4278528495        2.5157332129        1.8999685084
 C         -1.6799930784        2.1851338941        2.3856925842
 C         -2.6651253071        1.7165396755        1.5340684387
 C         -2.3768200501        1.5640920739        0.1837382334
 N         -3.3605136715        1.0868443710       -0.7008028354
 S         -4.2595229374       -0.2708371674       -0.3281546045
 O         -4.9611059170       -0.6004134553       -1.5471568578
 O         -5.0796567498        0.0044507016        0.8250730099
 C         -3.0863061838       -1.5568373014        0.0590377399
 C         -2.6793564987       -2.4044941705       -0.9521385481
 C         -1.7593390311       -3.3993265280       -0.6650320274
 C         -1.2518373211       -3.5190598772        0.6198741806
 C         -1.6629583726       -2.6543597341        1.6219188746
 C         -2.5925869500       -1.6647780076        1.3438125661
 H         -2.9458114962       -0.9869450002        2.1029661731
 H         -1.2643344570       -2.7480110540        2.6194853517
 H         -0.5310688682       -4.2900519905        0.8411961973
 H         -1.4389797782       -4.0746936515       -1.4420572460
 H         -3.1017017793       -2.2799871010       -1.9362468458
 H         -3.0422559674        1.0374831640       -1.6579794834
 H         -3.6487116201        1.4641777250        1.8960955815
 H         -1.8945436458        2.2977090654        3.4378178224
 H          0.3433957704        2.8684822035        2.5701961573
 C          1.2453195567        2.7281836588        0.0406268983
 H          1.7262093144        3.3695931881        0.7908100053
 C          1.2285709710        3.4684743231       -1.2815527590
 C          0.7684452407        4.8939260465       -1.3083115661
 C          2.2168509743        4.5694198709       -1.5150530567
 H          2.6362380183        4.6838707485       -2.5034716558
 H          2.9104485608        4.7974496735       -0.7186648070
 H          0.1910172164        5.2348555134       -2.1539661550
 H          0.4785658352        5.3413316069       -0.3694272132
 H          0.9826509455        2.8425310297       -2.1290730846
 O          1.0362074781        0.5331999622       -1.9215693587
