  62
        -98.93585419
 C          2.3544156802        1.1665569496        0.0205491090
 C          3.3536363904        0.6760171801        0.9031365491
 C          4.3764003303       -0.2005392901        0.3202766694
 C          4.3337164402       -0.4834944908       -0.9935991504
 C          5.3232662701       -1.3079226911       -1.7738030602
 C          5.4165082903       -2.7993417509       -1.3983537295
 C          6.5088354104       -3.1260532703       -0.3724727195
 H          6.9940283105       -4.0603893704       -0.6620457991
 H          7.2741006004       -2.3500696903       -0.4150529200
 C          6.0353541807       -3.2982492696        1.0739504107
 H          6.9165275608       -3.2756612192        1.7187661405
 H          5.5734058907       -4.2820892896        1.1832681712
 C          5.0289173907       -2.2620666594        1.5748387903
 H          4.0435349906       -2.4714840997        1.1517220706
 H          4.9303101108       -2.3776638289        2.6559660204
 C          5.3930680905       -0.8011150096        1.2469062696
 H          5.3772582106       -0.1997686291        2.1579923593
 H          6.3897452704       -0.7408185797        0.8122097394
 H          5.6400782202       -3.3423037513       -2.3180822492
 H          4.4456879303       -3.1470803808       -1.0462596492
 H          5.0135678399       -1.2216514416       -2.8173845602
 H          6.3102065601       -0.8488812510       -1.6804932506
 O          3.3630752900        0.0091433888       -1.8082867305
 C          2.3522082700        0.8311568389       -1.3330778708
 O          1.5455580599        1.1780041085       -2.2209568308
 H         -0.3763302800        0.9665271388       -1.1730955805
 C         -0.7530729198        0.8849836193       -0.1640939304
 C          0.0002203603        1.3925523699        0.8850728193
 C         -0.4958127895        1.2699847205        2.1778754094
 C         -1.7142183594        0.6562386805        2.4103248599
 C         -2.4602037895        0.1494342699        1.3614509402
 C         -1.9717194697        0.2625706593        0.0663061401
 N         -2.7092463199       -0.2712513713       -1.0063738995
 S         -4.3149291399        0.1948091486       -1.1626934295
 O         -4.6354041201        0.0012138579       -2.5600070594
 O         -4.5366609799        1.5198373388       -0.6306875401
 C         -5.2051496897       -1.0059713010       -0.1946722688
 C         -5.0208528096       -2.3433594012       -0.4863488782
 C         -5.7149909395       -3.2902944008        0.2496302024
 C         -6.5796659193       -2.8862120504        1.2561659223
 C         -6.7565722994       -1.5395274303        1.5341676517
 C         -6.0640617096       -0.5871069006        0.8025555311
 H         -6.1646441996        0.4705611595        0.9867067706
 H         -7.4293806593       -1.2275970200        2.3167039617
 H         -7.1187397292       -3.6256867502        1.8270482028
 H         -5.5798614994       -4.3384932109        0.0364110029
 H         -4.3426002297       -2.6145263815       -1.2782478381
 H         -2.2306484900       -0.1914887017       -1.8926031096
 H         -3.4094752595       -0.3301816501        1.5359631106
 H         -2.0868959493        0.5696676910        3.4194806000
 H          0.0858530006        1.6530053509        3.0036674691
 C          1.3131710702        2.0930936598        0.6258280587
 H          1.7301257603        2.3863999503        1.5987170985
 C          1.0894222100        3.3496146794       -0.1943353718
 C          0.5371794500        4.5687595497        0.4785148676
 C          1.9680724800        4.5411445096        0.0332942774
 H          2.2578312098        5.1370792492       -0.8191100929
 H          2.7356452601        4.4579615100        0.7888878474
 H          0.3349330602        4.5069086802        1.5370116077
 H         -0.1615362701        5.1848883494       -0.0664813726
 H          0.7769186399        3.1511744789       -1.2115808617
 O          3.3970836605        0.9748287607        2.1259919590
