  62
        -98.94453033
 C         -1.2773860590       -1.7672896568       -0.6838474277
 C         -2.4694102666       -1.6456380523        0.0768984368
 C         -3.4009001699       -0.5905828885       -0.3300357637
 C         -3.1182738954        0.1652931715       -1.4058907657
 C         -3.9454171295        1.3064218297       -1.9305404596
 C         -3.6520298206        2.6354036235       -1.2200887956
 C         -4.2131823939        2.7475148505        0.1982261611
 H         -4.1430707332        3.7982699791        0.4868038721
 H         -5.2704083605        2.4783389856        0.1946756666
 C         -3.4659810183        1.9030190391        1.2403529106
 H         -2.4832199628        1.6278302328        0.8473126623
 H         -3.2858862201        2.5062388071        2.1338319034
 C         -4.2076734286        0.6426018038        1.6889953682
 H         -3.5650247771        0.1013132222        2.3884206369
 H         -5.1202362691        0.9265502481        2.2185414489
 C         -4.5812551643       -0.3171278259        0.5514531550
 H         -5.4074296275        0.0904220034       -0.0305446792
 H         -4.8953586421       -1.2659937915        0.9934415008
 H         -2.5690509704        2.7847014206       -1.1904846381
 H         -4.0845027748        3.4355564121       -1.8258362195
 H         -5.0061491940        1.0689475728       -1.8454169446
 H         -3.6945923098        1.4168971796       -2.9877456080
 O         -2.0108126490       -0.0358258285       -2.1613292343
 C         -1.0259906495       -0.9446820034       -1.7825412763
 O         -0.0240931610       -0.9159428776       -2.5209533813
 O         -2.7313198822       -2.3841869808        1.0647743834
 C         -0.2399596358       -2.7267463786       -0.1262719800
 C          0.4631796290       -2.0647866063        1.0365186615
 C          0.8233366540       -2.7743615097        2.1758521520
 C          1.4399077841       -2.1296704906        3.2344745982
 C          1.6925521389       -0.7704788076        3.1874193287
 C          1.3195890785       -0.0474089171        2.0582689164
 C          0.7323258359       -0.7053431309        0.9889295604
 H          0.4365769223       -0.1369834721        0.1232412589
 N          1.4935692837        1.3369076883        2.0046218343
 S          1.4750468282        2.2427128757        0.6063764435
 O          1.8173845175        3.5729508828        1.0641639250
 O          0.2101011397        2.1150301107       -0.0717036904
 C          2.8257097097        1.6111617511       -0.3716013783
 C          2.6102686990        0.8508060578       -1.5016639235
 C          3.7091934462        0.3787448415       -2.2053685778
 C          4.9923052717        0.6665644247       -1.7704762604
 C          5.1917553512        1.4342955363       -0.6321434774
 C          4.1006319422        1.9112346749        0.0731844544
 H          4.2110765168        2.5277207996        0.9504056069
 H          6.1905531714        1.6612901260       -0.2957874932
 H          5.8400264142        0.2928350935       -2.3227265529
 H          3.5434071288       -0.2162239416       -3.0890741259
 H          1.6070202170        0.6213457849       -1.8268363123
 H          2.0229448057        1.7568355019        2.7516511939
 H          2.1519108148       -0.2662896782        4.0234541236
 H          1.7156367822       -2.6901043781        4.1148273906
 H          0.5938746967       -3.8275450675        2.2420755921
 H         -0.8128321919       -3.5756070930        0.2817764814
 C          0.7267355097       -3.2784406487       -1.1612501912
 C          2.1370457150       -2.7957100049       -1.2922534468
 C          1.8651024226       -4.1642534905       -0.7486383892
 H          2.0963601028       -5.0200659533       -1.3644114531
 H          2.0240487154       -4.3218005928        0.3066765921
 H          2.5408833746       -2.6983322270       -2.2875427442
 H          2.4752163809       -2.0294987336       -0.6110936208
 H          0.2210074824       -3.5363435178       -2.0854983750
