  62
        -98.94443839
 C          2.7182677997        0.9895751103        0.1584119005
 C          2.4623718302        0.1142387105       -0.9258064598
 C          2.9552398108       -1.2623732994       -0.7698812301
 C          3.6568742208       -1.5975149294        0.3271274399
 C          4.1616328513       -2.9753218692        0.6397527596
 C          3.1409834815       -3.7610934599        1.4748367193
 C          1.7180587916       -3.7222020004        0.9157796291
 H          1.0963149818       -4.3415921208        1.5660292188
 H          1.3276943411       -2.7033259505        0.9807872493
 C          1.5877394120       -4.2153292600       -0.5319127311
 H          2.4636337223       -4.8062933096       -0.8039616411
 H          0.7170237723       -4.8708275804       -0.6001027314
 C          1.3841178117       -3.1041656198       -1.5641626008
 H          1.0770199520       -3.5678755397       -2.5061832910
 H          0.5645783714       -2.4531129503       -1.2434430308
 C          2.6175496514       -2.2398630992       -1.8596183104
 H          2.3977384413       -1.6391320091       -2.7471028603
 H          3.4714091117       -2.8829566988       -2.0831526804
 H          3.4765264720       -4.7974309598        1.5434238290
 H          3.1221051012       -3.3412773102        2.4830934594
 H          5.0877495112       -2.8813611090        1.2092427798
 H          4.3687948117       -3.5011899089       -0.2899852405
 O          3.9479271303       -0.7113724995        1.3128719202
 C          3.4511607997        0.5790461003        1.2765538805
 O          3.7374680093        1.2644756201        2.2780456707
 O          1.8578605503        0.4437723405       -1.9816308998
 C          2.1374519491        2.3964090000        0.2274815008
 C          0.6681544091        2.2291113793        0.5306321905
 C          0.2155413989        2.2665758887        1.8457788405
 C         -1.1032467010        1.9777943981        2.1471774702
 C         -1.9914429307        1.6200832080        1.1474409999
 C         -1.5454872805        1.5735052485       -0.1658958400
 C         -0.2356930006        1.9080152692       -0.4717482197
 H          0.1006393496        1.8459900996       -1.4950264797
 N         -2.4275718202        1.1355423584       -1.1809590002
 S         -2.8395465895       -0.4954521818       -1.0440105008
 O         -1.8103873193       -1.2494223015       -0.3654937208
 O         -3.1829345491       -0.9266659916       -2.3819786809
 C         -4.3191240197       -0.4538736127       -0.0537037410
 C         -5.4024075099        0.2550227770       -0.5355758409
 C         -6.5619521200        0.3012854963        0.2215458089
 C         -6.6187652399       -0.3597919841        1.4397415587
 C         -5.5235502697       -1.0693325737        1.9081127287
 C         -4.3599520896       -1.1185170830        1.1558289988
 H         -3.4806550794       -1.6512593727        1.4814100288
 H         -5.5693209696       -1.5829406940        2.8550258785
 H         -7.5222063200       -0.3224702846        2.0277082786
 H         -7.4158342002        0.8519388560       -0.1388474211
 H         -5.3153344199        0.7500632173       -1.4882742808
 H         -2.0498316301        1.2926637989       -2.1062985201
 H         -3.0137222106        1.3656391375        1.3765514397
 H         -1.4390383412        2.0142041077        3.1723685601
 H          0.9188294287        2.4968923488        2.6337244906
 H          2.6138986788        2.8774435200        1.0913686610
 C          2.4155609489        3.2296368605       -1.0053685589
 C          2.1944707283        4.7103960703       -0.9406975686
 C          3.5875271785        4.1625942710       -1.0070239385
 H          4.1474778086        4.2823394814       -1.9223668884
 H          4.1959593184        4.2026777910       -0.1152845384
 H          1.7961950982        5.2106447104       -1.8100292685
 H          1.8565338780        5.1221484599       -0.0017006185
 H          2.1888925993        2.7238109206       -1.9344550591
