  62
        -98.94050688
 C         -2.3504686818       -0.8162769700       -0.1758496081
 C         -3.5859427374       -1.1304416705        0.4400682579
 C         -4.7706045385       -0.4875674446       -0.1385519403
 C         -4.6356993485        0.3227035459       -1.2043308532
 C         -5.7507948862        1.0346676128       -1.9212355768
 C         -6.1568158851        2.3660893469       -1.2743616900
 C         -6.9289430563        2.2415237172        0.0396690301
 H         -7.3350250072        3.2291101569        0.2672219850
 H         -7.7736687077        1.5661956522       -0.0993699607
 C         -6.0814077268        1.7706697967        1.2298349522
 H         -5.0218190560        1.8959873151        0.9945886004
 H         -6.2923271065        2.3986460422        2.0983991832
 C         -6.3272523647        0.3211497028        1.6490040456
 H         -5.6515699573        0.0837527844        2.4747015892
 H         -7.3519491782        0.2129448913        2.0111923344
 C         -6.0917980069       -0.7073659908        0.5348235551
 H         -6.0739170499       -1.7029350420        0.9848065777
 H         -6.9017660445       -0.6663154060       -0.1928780094
 H         -6.7858632819        2.8981848709       -1.9916651173
 H         -5.2568541448        2.9641505635       -1.1134954617
 H         -5.3892236813        1.2386423095       -2.9313093251
 H         -6.6204726848        0.3805864722       -1.9883899323
 O         -3.4317662591        0.5822185623       -1.7808153764
 C         -2.2590624264        0.0442496631       -1.2696397312
 O         -1.2291593532        0.3995227526       -1.8737226857
 H          1.5372034288       -0.8552039922       -0.3499069054
 C          1.1378057647       -0.1766079012        0.3845601903
 C         -0.1557108802       -0.3246624199        0.8566322876
 C         -0.6286081646        0.5810725818        1.8041676775
 C          0.1724139607        1.6086010563        2.2611428657
 C          1.4660817509        1.7509165137        1.7899594947
 C          1.9460969056        0.8561905607        0.8414454991
 N          3.2415824953        0.9997187572        0.3210808729
 S          4.1104845284       -0.3733794533       -0.1279106116
 O          3.6949314565       -0.7914647493       -1.4429257630
 O          4.0346633396       -1.3725753208        0.9145063805
 C          5.7553621767        0.3113847324       -0.2098520497
 C          6.6372418702        0.1006655830        0.8330550303
 C          7.9024559829        0.6630491467        0.7649585912
 C          8.2609809512        1.4248351115       -0.3368329688
 C          7.3650228571        1.6270750307       -1.3764459802
 C          6.0993402463        1.0663000073       -1.3156488625
 H          5.3731060147        1.1881557983       -2.1025642966
 H          7.6479766640        2.2177717319       -2.2327618982
 H          9.2458416230        1.8615859712       -0.3876023047
 H          8.6024126796        0.5048711508        1.5694940300
 H          6.3165723919       -0.5045088126        1.6656485776
 H          3.8097783892        1.6487123581        0.8477518614
 H          2.0941358259        2.5534140725        2.1459307943
 H         -0.2091604703        2.3021014188        2.9955308232
 H         -1.6382423622        0.4652372742        2.1749920797
 C         -1.0776258255       -1.4225355469        0.3869736422
 H         -1.3945615035       -2.0013765822        1.2676846948
 C         -0.4422904053       -2.3674311208       -0.6096339863
 C          0.4764155617       -3.4504166734       -0.1314851729
 C         -0.8857098067       -3.7977415191       -0.6506789463
 H         -0.9636816925       -4.2855879253       -1.6106249745
 H         -1.6403769688       -4.1038087928        0.0590500378
 H          1.3410487508       -3.6929201492       -0.7314952291
 H          0.6521923612       -3.5215679896        0.9315260019
 H         -0.2125184815       -1.8882718196       -1.5554114614
 O         -3.6921625942       -1.9071233440        1.4269294646
