  62
        -98.94476416
 C         -1.1737868144       -1.7728624159       -0.6805307771
 C         -1.2244001239       -0.4548836989       -1.2010329878
 C         -2.5142440897        0.2421973814       -1.0526484478
 C         -3.5474558046       -0.3831498742       -0.4631023559
 C         -4.9052917801        0.2150051983       -0.2347623139
 C         -5.0032418757        0.8839855277        1.1422589844
 C         -3.8528835191        1.8438382876        1.4462342391
 H         -4.0540966044        2.2966947937        2.4199301250
 H         -2.9223413245        1.2789859288        1.5464062539
 C         -3.6538512117        2.9489792462        0.4000670266
 H         -4.5555204114        3.0587675877       -0.2044047463
 H         -3.4929143755        3.8954396998        0.9208988706
 C         -2.4446011313        2.7333136624       -0.5121993394
 H         -2.2372936937        3.6754296057       -1.0287767655
 H         -1.5762737666        2.4920084869        0.1071951945
 C         -2.6004906229        1.6453992511       -1.5836113308
 H         -3.5358090201        1.7967443174       -2.1275461238
 H         -1.7705868742        1.7480637930       -2.2891641763
 H         -5.0098527822        0.1045681607        1.9077788017
 H         -5.9513252901        1.4226713546        1.1972354108
 H         -5.1115668679        0.9416331410       -1.0182623837
 H         -5.6443549825       -0.5863703535       -0.2913401995
 O         -3.4621372419       -1.6477260277        0.0246321947
 C         -2.2763125960       -2.3574986645       -0.0528167132
 O         -2.3322806973       -3.4979219610        0.4526309189
 H          0.9647812537       -0.2623739944        0.1607991241
 C          1.2947697815       -1.0673504070        0.7957906055
 C          0.9300209117       -2.3704895898        0.4872692654
 C          1.3487564992       -3.3989587033        1.3226196783
 C          2.1048614477       -3.1218979530        2.4484556334
 C          2.4567724792       -1.8210288524        2.7597783967
 C          2.0476191678       -0.7853140476        1.9253526474
 N          2.4242548935        0.5352777893        2.1847410153
 S          1.6502254084        1.8404985248        1.4910607684
 O          2.1799091195        2.9793961078        2.2154109194
 O          0.2129584102        1.7009323193        1.5326360842
 C          2.2623111809        1.8904006464       -0.1795596100
 C          3.5111683660        1.3704430654       -0.4559708025
 C          3.9938201135        1.4418545103       -1.7522965697
 C          3.2277047202        2.0347403677       -2.7437443954
 C          1.9815259266        2.5615078154       -2.4472171560
 C          1.4920285390        2.4911246500       -1.1531735112
 H          0.5205534435        2.8761386453       -0.8904533754
 H          1.3826999801        3.0187124500       -3.2184447695
 H          3.6029277825        2.0843249775       -3.7539999321
 H          4.9624244496        1.0295333495       -1.9857857818
 H          4.0808673899        0.9099901405        0.3343638811
 H          2.8326276426        0.7272517602        3.0857710281
 H          3.0391672181       -1.6043316417        3.6420866885
 H          2.4183149568       -3.9271930473        3.0953772526
 H          1.0598447298       -4.4149828149        1.0969651574
 C          0.0755725841       -2.6406062253       -0.7237979129
 H         -0.2908590466       -3.6768327516       -0.6460847406
 C          0.8394248526       -2.5299542279       -2.0362611899
 C          2.1616046720       -1.8443370864       -2.1796396298
 C          2.0865851615       -3.3384606604       -2.2433268934
 H          2.2345191779       -3.8285780826       -3.1935896184
 H          2.4616596241       -3.8926498847       -1.3959150027
 H          2.3359267845       -1.2883193269       -3.0878061008
 H          2.6016811989       -1.3891570914       -1.3067610423
 H          0.1658751379       -2.4500342968       -2.8834755021
 O         -0.2662740532        0.1204178217       -1.7756501538
