  62
        -98.94576309
 C         -2.4836974454       -1.1273569883       -0.0459483226
 C         -3.0851105114       -0.2322676117        0.8704798169
 C         -3.5727398983        1.0311862795        0.3085970800
 C         -3.4293242811        1.2752358638       -1.0069366411
 C         -3.8792986320        2.5154016209       -1.7302912308
 C         -2.8718223781        3.6715121232       -1.6609152332
 C         -2.7706533765        4.3645833405       -0.3015106271
 H         -2.1991177458        5.2825515682       -0.4516349398
 H         -3.7675394530        4.6510312127        0.0353365909
 C         -2.0790303088        3.5284276845        0.7847143977
 H         -1.5138995119        2.7177366562        0.3157433730
 H         -1.3516818941        4.1483899410        1.3149778259
 C         -3.0278321904        2.9420848039        1.8311202279
 H         -2.4384639846        2.3409174313        2.5287540681
 H         -3.4923815049        3.7527947585        2.3966396817
 C         -4.1350932974        2.0502427817        1.2533435109
 H         -4.8866823285        2.6603426513        0.7536629408
 H         -4.6085903748        1.5141556040        2.0794660020
 H         -1.8868094904        3.2958623351       -1.9502292864
 H         -3.1754616150        4.4146317469       -2.4018659213
 H         -4.0085374227        2.2347960997       -2.7776719124
 H         -4.8409963869        2.8439246540       -1.3355170078
 O         -2.8512217291        0.3868950156       -1.8570593738
 C         -2.3273118700       -0.8132284934       -1.3965601287
 O         -1.7740875054       -1.4991053283       -2.2759333744
 O         -3.1995895887       -0.4739314271        2.1034509998
 C         -1.8855651608       -2.4203960131        0.4837373197
 C         -0.3846716446       -2.3218209326        0.3606359688
 C          0.4010199044       -3.2149373128       -0.3537907662
 C          1.7655244996       -3.0074730420       -0.4702304896
 C          2.3728930739       -1.9142471624        0.1198842842
 C          1.5960141877       -1.0200101095        0.8454456048
 C          0.2343763598       -1.2340479267        0.9665436376
 H         -0.3704663198       -0.5300522112        1.5261685823
 N          2.2064244375        0.1104728487        1.4381756187
 S          2.7421704605        1.2654171951        0.3320154452
 O          2.8074798507        2.5060296290        1.0742309337
 O          1.9231073557        1.2738966537       -0.8599721403
 C          4.3930764104        0.7257240891       -0.0534225039
 C          5.3253177460        0.7137899417        0.9659915635
 C          6.6134190987        0.2850973483        0.6886791703
 C          6.9452827529       -0.1198919400       -0.5959182117
 C          5.9982167733       -0.0991225012       -1.6085251936
 C          4.7070171078        0.3272838997       -1.3376346473
 H          3.9345076871        0.3538688736       -2.0897224749
 H          6.2577033448       -0.4147604021       -2.6062779222
 H          7.9481658715       -0.4543013401       -0.8096197396
 H          7.3526575002        0.2672346929        1.4731192358
 H          5.0243119445        1.0418997683        1.9468044642
 H          1.6025882214        0.5659259992        2.1096901046
 H          3.4335790940       -1.7477161748        0.0251828319
 H          2.3635188309       -3.7059556875       -1.0352786036
 H         -0.0566874431       -4.0642775486       -0.8332917704
 H         -2.1400647195       -2.4411974437        1.5536971209
 C         -2.4863177517       -3.6355699565       -0.1859868594
 C         -2.4424206921       -4.9643014324        0.5061438052
 C         -3.7413197429       -4.2286363437        0.3782388486
 H         -4.4851675267       -4.6062856838       -0.3069834952
 H         -4.1574829822       -3.7651008050        1.2608526547
 H         -2.2962017637       -5.8517960657       -0.0903600358
 H         -1.9765412720       -5.0043596866        1.4790340631
 H         -2.3853174755       -3.6136310677       -1.2646190866
