  62
        -98.93831225
 C          1.7440445190        1.4958636905        0.3217268299
 C          1.6303971195        0.3072548204       -0.4381807400
 C          2.6414738500       -0.7286607891       -0.1662514300
 C          3.5684052701       -0.5124288786        0.7844186498
 C          4.7074168906       -1.4327102980        1.1197253397
 C          5.8253688503       -1.2892725176        0.0670892795
 C          6.0609738508       -2.5419493275       -0.7773639905
 H          6.7028364605       -2.2564810973       -1.6136213906
 H          6.6066605812       -3.2752528072       -0.1798312905
 C          4.8039487910       -3.2258303482       -1.3237865102
 H          5.1323459512       -3.9184795681       -2.1016650302
 H          4.3470380114       -3.8327915183       -0.5408165401
 C          3.7352930305       -2.2956377288       -1.9124639701
 H          3.3194573205       -2.7765025390       -2.8003540800
 H          4.1818518500       -1.3566864886       -2.2405117603
 C          2.5542825405       -1.9975908292       -0.9691048499
 H          1.6490151903       -1.8849654797       -1.5735953298
 H          2.4050779610       -2.8478327192       -0.2975918198
 H          5.5756720898       -0.4502365078       -0.5858985106
 H          6.7620135103       -1.0309870671        0.5634396693
 H          5.0758709206       -1.1473650577        2.1052251396
 H          4.3525937411       -2.4598022682        1.1639549098
 O          3.6233754797        0.6309491815        1.5153234697
 C          2.7218896391        1.6590582311        1.3050318997
 O          2.8890184088        2.6497517112        2.0435549296
 H         -1.3456041715        1.9241964688       -1.4836790896
 C         -1.5595889312        1.8103950788       -0.4332878295
 C         -0.6081915212        2.1605630194        0.5096360603
 C         -0.9073826109        1.9812578994        1.8579083503
 C         -2.1309671206        1.4713028688        2.2486578206
 C         -3.0750287406        1.1076289283        1.3030594208
 C         -2.7775639909        1.2681728683       -0.0431728293
 N         -3.7060351009        0.8596969178       -1.0145453891
 S         -4.5117155002       -0.5835591826       -0.7699896188
 O         -4.8018876501       -1.0859742829       -2.0955154687
 O         -5.6630704801       -0.3525721531        0.0689541414
 C         -3.3826267095       -1.6807113220        0.0765729011
 C         -3.8705769989       -2.4375376821        1.1237026712
 C         -3.0196392684       -3.3130512517        1.7781383112
 C         -1.6958146784       -3.4133353311        1.3794789810
 C         -1.2210715290       -2.6460858409        0.3276349208
 C         -2.0685584895       -1.7740165514       -0.3368300291
 H         -1.6946965599       -1.1663818013       -1.1455995693
 H         -0.1896103990       -2.7072262205        0.0193844606
 H         -1.0291741180       -4.0897986207        1.8908663209
 H         -3.3890144580       -3.9094561918        2.5968435513
 H         -4.9035105789       -2.3183404626        1.4085095414
 H         -3.3607725511        0.9269805378       -1.9609846792
 H         -4.0318605904        0.7008079778        1.5887123910
 H         -2.3513291404        1.3461474788        3.2978169706
 H         -0.1592428509        2.2397111598        2.5948380802
 C          0.7673728485        2.6445910300        0.1241141100
 H          1.0694236582        3.4242646302        0.8357881298
 C          0.8565058179        3.2042550199       -1.2801094001
 C          0.2623963772        4.5470066896       -1.5786114501
 C          1.7508368573        4.3762647703       -1.5445274804
 H          2.2956777072        4.4086152205       -2.4762669505
 H          2.2953244973        4.7879773107       -0.7072633605
 H         -0.2152521330        4.7012430093       -2.5342910000
 H         -0.2064116529        5.0759531295       -0.7626775101
 H          0.8043615782        2.4428742398       -2.0489641700
 O          0.7392538294        0.1121758299       -1.3059008098
