  62
        -98.94209514
 C          1.3921740229        1.2451626487        0.8283937094
 C          2.3476866310        0.7832107719       -0.1049878695
 C          2.9326228839       -0.5459161714        0.1498541719
 C          2.4944995375       -1.2733833334        1.1934309181
 C          2.8922144123       -2.6458535965        1.6954826859
 C          3.7623674817       -3.5656737424        0.8444461811
 C          3.0792467327       -4.1052320520       -0.4122420822
 H          3.8220590398       -4.6537933516       -0.9962390756
 H          2.3043228527       -4.8138772578       -0.1085944890
 C          2.4147001605       -3.0638610001       -1.3101246118
 H          1.9606563350       -3.5932345347       -2.1534118471
 H          1.5964832705       -2.5728183604       -0.7777051973
 C          3.3501592515       -2.0005681364       -1.8818116189
 H          2.7742984186       -1.4148533017       -2.6040483996
 H          4.1715537646       -2.4821153265       -2.4174020379
 C          3.9411915198       -1.0183102772       -0.8575187468
 H          4.8118418851       -1.4410997694       -0.3617700295
 H          4.2706596393       -0.1271608490       -1.4003144827
 H          4.6963510654       -3.0727179958        0.5911892625
 H          4.0169420934       -4.4235024092        1.4731114475
 H          3.3965867895       -2.4780735744        2.6538368688
 H          1.9523389199       -3.1585043023        1.9255577078
 O          1.5552084247       -0.7920921966        2.0589504218
 C          0.9716277014        0.4499770858        1.8910317656
 O          0.1031821149        0.7270340880        2.7448813267
 H         -1.0951320858        0.6926090016        0.0887467998
 C         -0.9715248243        1.3298779331       -0.7730324556
 C         -0.1102873817        2.4176714950       -0.6868763512
 C          0.0276009053        3.2470052512       -1.7900663335
 C         -0.6481526712        2.9563567536       -2.9640164243
 C         -1.4462184176        1.8324722770       -3.0675160009
 C         -1.6056188674        1.0057628201       -1.9587757440
 N         -2.4068497391       -0.1406461840       -2.0230673030
 S         -2.1751466143       -1.4594319324       -1.0191044542
 O         -0.7984513182       -1.6222682956       -0.6179280345
 O         -2.7570062986       -2.5623331792       -1.7569256848
 C         -3.2253766243       -1.0965250721        0.3718068698
 C         -4.5835160429       -1.0092989950        0.1299426933
 C         -5.4368112308       -0.7192698718        1.1809332457
 C         -4.9207738395       -0.5198758963        2.4532843875
 C         -3.5574027606       -0.6155143504        2.6812837494
 C         -2.6986532001       -0.9094356558        1.6326781743
 H         -1.6323953021       -0.9794418702        1.7866358823
 H         -3.1454248688       -0.4561021716        3.6650683014
 H         -5.5831712682       -0.2896502762        3.2728163853
 H         -6.4983203740       -0.6471253988        1.0071820913
 H         -4.9423410858       -1.1800316084       -0.8712916124
 H         -2.7146474614       -0.4048832661       -2.9465373031
 H         -1.9375476674        1.5884323135       -3.9969919126
 H         -0.5289969268        3.6020526784       -3.8210046204
 H          0.6785017617        4.1042552245       -1.7415197055
 C          0.6691797694        2.5637374976        0.5986680464
 H         -0.0441739367        2.6697274757        1.4285578059
 C          1.6251244840        3.7352243796        0.6155068571
 C          1.1167315406        5.1084858879        0.9337256721
 C          1.9671399727        4.3754292412        1.9260437443
 H          2.9809489738        4.7102476091        2.0862132261
 H          1.4945972123        3.9768839374        2.8121306499
 H          1.5476809229        5.9512379670        0.4148672464
 H          0.0641259722        5.2133889193        1.1488115847
 H          2.4192507755        3.6375359247       -0.1149269349
 O          2.7110231185        1.4489719931       -1.1105143399
