  62
        -98.93502658
 C         -2.1061083975       -0.8890692093        0.2076971290
 C         -2.9789038151       -0.2574035620        1.1278100110
 C         -3.7340190762        0.9067707802        0.6353882129
 C         -3.5214157926        1.3444974141       -0.6170405248
 C         -4.1402176769        2.5281319519       -1.3181972146
 C         -5.6425887199        2.7665721098       -1.1161871822
 C         -6.4858056366        1.4927725897       -0.9580227572
 H         -7.3236119220        1.5330795541       -1.6564627396
 H         -5.8896592093        0.6156176954       -1.2157091719
 C         -7.0572092438        1.3264205337        0.4521333356
 H         -7.4294443657        2.2941733955        0.7951656439
 H         -7.9102194640        0.6451761783        0.4071617502
 C         -6.0862437838        0.7675275383        1.4914776762
 H         -5.8828123308       -0.2859386965        1.2802645346
 H         -6.5769877913        0.8083616763        2.4667525857
 C         -4.7338938934        1.4919894682        1.5910089919
 H         -4.8485153558        2.5637008193        1.4477607016
 H         -4.3310803232        1.3154861142        2.5922352574
 H         -5.7967659675        3.4053495414       -0.2476780152
 H         -5.9904767173        3.3287481500       -1.9844726182
 H         -3.5905719337        3.4254398167       -1.0179653990
 H         -3.9336839333        2.3679525211       -2.3793603433
 O         -2.6249202119        0.7454484906       -1.4505744457
 C         -1.8979879809       -0.3762970801       -1.0729592820
 O         -1.1249821044       -0.7933953988       -1.9544742583
 H          0.2217002331       -0.0838379858        1.4386095265
 C          0.7837524123       -0.7923960742        0.8410063112
 C          0.1390164717       -1.9244004285        0.3563521245
 C          0.8651905546       -2.8171261243       -0.4193663954
 C          2.1976214855       -2.5723419288       -0.7040955438
 C          2.8336970221       -1.4437881840       -0.2216086598
 C          2.1151518980       -0.5413470532        0.5519892575
 N          2.7523012624        0.6079914125        1.0550689138
 S          3.6066589820        1.5742782690       -0.0223197182
 O          3.6110602918        2.8901239008        0.5812411954
 O          3.0779093332        1.4845577529       -1.3633682333
 C          5.2563671047        0.9067159329        0.0363026189
 C          5.8823782907        0.8274419371        1.2649861818
 C          7.1673607828        0.3130101659        1.3288159354
 C          7.8019049494       -0.1081087433        0.1695134744
 C          7.1613118421       -0.0181053676       -1.0567798253
 C          5.8752011896        0.4948004458       -1.1275159866
 H          5.3347368174        0.5789018260       -2.0571253745
 H          7.6562204970       -0.3450055426       -1.9571678916
 H          8.8018283156       -0.5089200815        0.2218891142
 H          7.6687308172        0.2413369228        2.2805133247
 H          5.3548771813        1.1688344703        2.1398812356
 H          2.1511067389        1.1792218813        1.6318161439
 H          3.8686752535       -1.2471483129       -0.4489159948
 H          2.7483636036       -3.2705223636       -1.3158547145
 H          0.3820116770       -3.6906458007       -0.8247145990
 C         -1.3207481910       -2.0939182056        0.6950080535
 H         -1.4177476176       -2.0514193030        1.7933199738
 C         -1.8948293240       -3.4354110691        0.2658961453
 C         -3.3541484779       -3.5864208475       -0.0404574460
 C         -2.3420143507       -3.7085403565       -1.1377920012
 H         -2.1549804601       -4.6884041718       -1.5524789539
 H         -2.2558506812       -2.9073816183       -1.8547626191
 H         -3.8611953403       -4.4776135538        0.2976562581
 H         -3.9664817700       -2.6967012301       -0.0080427288
 H         -1.4299918497       -4.2606451237        0.7965315627
 O         -3.1110482246       -0.6406599304        2.3210067233
