  62
        -98.93794507
 C          1.8920168892        1.2285673610        0.0100230005
 C          2.5765029791        0.4523401711        0.9740273207
 C          3.2238253195       -0.7728156088        0.4844566708
 C          3.0893416100       -1.1089755888       -0.8116851292
 C          3.7481037004       -2.2823203186       -1.4797266291
 C          5.2369626504       -1.9744220283       -1.7391118286
 C          6.2085824404       -2.8553653181       -0.9537367483
 H          6.2413608807       -3.8452196681       -1.4135894383
 H          7.2022717203       -2.4130673779       -1.0503643980
 C          5.8875874399       -3.0397718183        0.5324198116
 H          6.7818193899       -3.4546033581        1.0022857518
 H          5.1003890900       -3.7863815684        0.6485126813
 C          5.4761578994       -1.7717167384        1.2913429415
 H          5.8697311494       -0.8828448883        0.7981460716
 H          5.9259011391       -1.8103194583        2.2855437616
 C          3.9581007393       -1.6105314887        1.4953297910
 H          3.4900725295       -2.5976115588        1.5572596008
 H          3.7863756489       -1.1073742687        2.4518530510
 H          5.4518288008       -2.0910434382       -2.8022680485
 H          5.4160584901       -0.9252871283       -1.4951710185
 H          3.6409558204       -3.1670991587       -0.8557698091
 H          3.2237423307       -2.4552550387       -2.4198149592
 O          2.3847197201       -0.3615015089       -1.6990841894
 C          1.7535058897        0.8119208910       -1.3141659096
 O          1.1249934099        1.3782415009       -2.2270735398
 O          2.6361617786        0.7673234210        2.1953742807
 C          1.1852175288        2.4971831008        0.4597303003
 C         -0.3020243311        2.2627476705        0.3635790898
 C         -1.1631883210        3.0181775704       -0.4197728704
 C         -2.5064058509        2.6900621101       -0.4996883009
 C         -3.0172702009        1.6087070900        0.1950137489
 C         -2.1643653910        0.8533612101        0.9892909492
 C         -0.8248649011        1.1879332204        1.0741487596
 H         -0.1611713412        0.5897171405        1.6873323598
 N         -2.6775641810       -0.2740475900        1.6814469790
 S         -2.8832647904       -1.6163257200        0.6792662789
 O         -2.9850006005       -2.7517299201        1.5711658388
 O         -1.8456271501       -1.6877196798       -0.3270554108
 C         -4.4623304602       -1.3125430503       -0.0800053916
 C         -5.5907316405       -1.3760328906        0.7145808580
 C         -6.8260904603       -1.1194710208        0.1418717276
 C         -6.9104211700       -0.8061387508       -1.2068712124
 C         -5.7678902997       -0.7488230305       -1.9906580920
 C         -4.5284071899       -1.0034288203       -1.4240616016
 H         -3.6115059097       -0.9636353401       -1.9907374913
 H         -5.8348947595       -0.5045906305       -3.0386404720
 H         -7.8725909799       -0.6051817709       -1.6508454727
 H         -7.7169699805       -1.1631628810        0.7473236274
 H         -5.4765377907       -1.6283027506        1.7555840381
 H         -2.0827013112       -0.5511549899        2.4517224392
 H         -4.0612595108        1.3483509698        0.1328520186
 H         -3.1633002108        3.2825653800       -1.1177384411
 H         -0.7798352110        3.8547283205       -0.9801408403
 H          1.4439225485        2.6133989608        1.5223973804
 C          1.6742122588        3.7100238309       -0.2998471695
 C          1.5196527284        5.0750844909        0.2994148505
 C          2.8768610585        4.4473628412        0.2052732709
 H          3.5797529487        4.8390886313       -0.5144670789
 H          3.3384920383        4.0849302212        1.1122907510
 H          1.2919090384        5.9027766909       -0.3546727296
 H          1.0594620181        5.1423538908        1.2735167203
 H          1.5686531392        3.6043127809       -1.3730314296
