  62
        -98.93934067
 C         -2.4718725749       -1.0499151193        0.3685747464
 C         -2.5443165329        0.1497670814        1.1254043511
 C         -3.7477810519        0.9709415863        0.9435855632
 C         -4.7105999130        0.5441343453        0.1066026210
 C         -5.9734752302        1.2919458712       -0.2066401963
 C         -5.7913721281        2.2044876569       -1.4272450905
 C         -4.5410573389        3.0814530304       -1.3598680841
 H         -3.6543749886        2.4443877304       -1.4039809625
 H         -4.5322277145        3.7057499799       -2.2559185685
 C         -4.4590888645        3.9745919799       -0.1140494823
 H         -4.1532914341        4.9769260301       -0.4210767994
 H         -5.4444585961        4.0624726783        0.3449042408
 C         -3.4518220606        3.5059465017        0.9381293164
 H         -3.3149942779        4.3142135374        1.6617251520
 H         -2.4823753922        3.3247880362        0.4657198733
 C         -3.8445866550        2.2499677219        1.7265489078
 H         -3.1405655849        2.1461201232        2.5575796697
 H         -4.8479688918        2.3735854632        2.1396199933
 H         -6.6763857291        2.8362656165       -1.5212267537
 H         -5.7226660747        1.5789722870       -2.3200487974
 H         -6.2639810441        1.8808823507        0.6611024352
 H         -6.7581915669        0.5646993865       -0.4212019819
 O         -4.6166285780       -0.6141528752       -0.5895715761
 C         -3.5002403423       -1.4333734762       -0.4934490178
 O         -3.5723186141       -2.4462872530       -1.2160741530
 O         -1.6435073996        0.5114400998        1.9315963429
 C         -1.2302240069       -1.9024807194        0.5658815833
 C         -0.2133932592       -1.6986635994       -0.5327083137
 C         -0.5005904792       -2.0058554546       -1.8587166950
 C          0.4573948305       -1.8253151565       -2.8393369115
 C          1.7137527050       -1.3418974709       -2.5199326146
 C          2.0148889340       -1.0410960114       -1.1962852838
 C          1.0495167933       -1.2189037071       -0.2147982028
 H          1.2867321484       -0.9624607293        0.8068132859
 N          3.3038926202       -0.6030451908       -0.8465730603
 S          3.5106788062        0.4917972117        0.4207236784
 O          3.3346550138       -0.2026793219        1.6708300719
 O          2.6908371595        1.6638727484        0.2067274240
 C          5.2348596917        0.8885956938        0.1983300598
 C          5.5928856763        2.0664201350       -0.4293178385
 C          6.9380982065        2.3439499526       -0.6170557961
 C          7.8966134676        1.4426135141       -0.1792086948
 C          7.5218346344        0.2646117097        0.4501732339
 C          6.1790579574       -0.0181243519        0.6422932002
 H          5.8404368830       -0.9151489209        1.1338332669
 H          8.2699745823       -0.4323213268        0.7919033093
 H          8.9425020512        1.6608653968       -0.3266302203
 H          7.2325352789        3.2603657608       -1.1026936204
 H          4.8131246575        2.7406794655       -0.7455332488
 H          3.8488118204       -0.3261368361       -1.6523785677
 H          2.4588227256       -1.2028079694       -3.2886379398
 H          0.2215430564       -2.0613161519       -3.8661765421
 H         -1.4819741988       -2.3762672591       -2.1115592934
 H         -0.7795302801       -1.5350406513        1.4987319171
 C         -1.5310229099       -3.3801936480        0.7323416020
 C         -0.5194846738       -4.2501541845        1.4134688726
 C         -1.8107983131       -3.9222054358        2.1000856142
 H         -2.5542742878       -4.6980831054        2.2037628987
 H         -1.7863907029       -3.2271085557        2.9270975416
 H         -0.3733195615       -5.2540080970        1.0457039766
 H          0.3817068312       -3.7773437786        1.7752690862
 H         -2.0867635762       -3.8020848036       -0.0945862543
