  62
        -98.94049442
 C         -1.2845289109       -1.5925536045       -0.0033834480
 C         -2.2357626818       -1.1338269308        0.9338500935
 C         -3.1348306342       -0.0502525995        0.4922336499
 C         -2.9771504192        0.4563794547       -0.7450128286
 C         -3.7975884645        1.5330612639       -1.4039849880
 C         -3.4635122478        2.9556417415       -0.9154299921
 C         -3.0858366300        3.0626198061        0.5606868334
 H         -2.3020557808        2.3362078060        0.7844921237
 H         -2.6654250231        4.0571843701        0.7317555856
 C         -4.2480477751        2.8813950423        1.5345272810
 H         -4.9519926108        3.7069355013        1.4033789189
 H         -3.8471402945        2.9456621156        2.5494650002
 C         -5.0240952612        1.5725438395        1.4017162439
 H         -5.5990529737        1.5634481135        0.4798800786
 H         -5.7477672624        1.5372633351        2.2217193069
 C         -4.1792459602        0.3070647558        1.5215769241
 H         -3.6515837161        0.3224751905        2.4821791114
 H         -4.8555975032       -0.5552615384        1.5774520698
 H         -4.3168528594        3.6038775087       -1.1201641935
 H         -2.6181888521        3.3195488036       -1.5010478611
 H         -4.8521973316        1.3090020378       -1.2639144890
 H         -3.5893310600        1.4737266815       -2.4740948416
 O         -1.9927873063        0.0347584544       -1.5875478974
 C         -1.1386998997       -1.0023988372       -1.2586801579
 O         -0.3170610527       -1.2988662403       -2.1438983905
 O         -2.3401526171       -1.6130055718        2.0970356832
 C         -0.3929175363       -2.7652902327        0.3622730986
 C          1.0577497399       -2.3593627522        0.3015602749
 C          2.0232089926       -3.0598716291       -0.4082935824
 C          3.3360026748       -2.6192455834       -0.4315941683
 C          3.7164537406       -1.4827489351        0.2572588322
 C          2.7589806159       -0.7785739406        0.9770026580
 C          1.4450918127       -1.2180772639        0.9947325758
 H          0.6998547081       -0.6653311240        1.5541040549
 N          3.1392442879        0.3841530083        1.6835493941
 S          3.6742985189        1.6756644343        0.7599327577
 O          4.8894315150        1.2957007523        0.0871574731
 O          3.7696575397        2.7899447146        1.6752925994
 C          2.3728674673        1.9653876365       -0.4226197773
 C          2.3111541462        1.1906516385       -1.5636409833
 C          1.2570678646        1.3778628766       -2.4431658691
 C          0.2900074423        2.3316524891       -2.1673495029
 C          0.3678944527        3.1036229094       -1.0183951284
 C          1.4142249871        2.9148578137       -0.1310550686
 H          1.5125669238        3.4935030966        0.7736690300
 H         -0.3826658933        3.8483473008       -0.8068366816
 H         -0.5313030658        2.4652487338       -2.8538615931
 H          1.1814886963        0.7640883521       -3.3256892033
 H          3.0804073401        0.4588782720       -1.7489592375
 H          2.4223045877        0.7115540414        2.3162946910
 H          4.7306848855       -1.1184974178        0.2366370654
 H          4.0740724884       -3.1709254787       -0.9938801610
 H          1.7487674251       -3.9485828100       -0.9518819369
 H         -0.6366216898       -3.0029322298        1.4085621391
 C         -0.7288614262       -3.9643178752       -0.4994010825
 C         -0.4881826577       -5.3521086816        0.0125120951
 C         -1.8876995573       -4.8313796717       -0.1120367877
 H         -2.5197361519       -5.2271218225       -0.8928460940
 H         -2.4214958912       -4.5722929251        0.7908042609
 H         -0.1610278625       -6.1100218207       -0.6831127462
 H         -0.0720044005       -5.4541176462        1.0033238858
 H         -0.5804879827       -3.7733518653       -1.5562449064
