  62
        -98.93581781
 C         -2.5675412389       -1.2612632876        0.2099307732
 C         -2.5910885073       -0.2015497014       -0.7303852647
 C         -3.9236617468        0.3298175740       -1.0618845797
 C         -5.0145667533       -0.2002973933       -0.4815751294
 C         -6.4206193601        0.2804833190       -0.6911415614
 C         -6.8033849650        1.3430483163        0.3485109998
 C         -5.7700208129        2.4595531237        0.4999787024
 H         -6.1604197853        3.1663384605        1.2355439209
 H         -4.8496633609        2.0415551966        0.9147639892
 C         -5.4441963447        3.2044568001       -0.8020985301
 H         -5.4285714222        4.2768644900       -0.5965045653
 H         -6.2303710643        3.0270463760       -1.5369196233
 C         -4.0880067990        2.8496656988       -1.4151151448
 H         -3.8660908082        3.5826497335       -2.1953904212
 H         -3.3069647949        2.9360724645       -0.6549968607
 C         -3.9864510324        1.4581268136       -2.0525256764
 H         -4.8113346938        1.3124651016       -2.7529400609
 H         -3.0472570291        1.4188398372       -2.6120314602
 H         -7.7663045343        1.7721372001        0.0656144256
 H         -6.9213780696        0.8525992119        1.3176136556
 H         -7.0944347669       -0.5721504542       -0.5909651266
 H         -6.5138739379        0.6891056619       -1.6953527563
 O         -4.9526672190       -1.2164256326        0.4168677270
 C         -3.7345190018       -1.7507761993        0.8024893502
 O         -3.8201037133       -2.6433397545        1.6696857384
 O         -1.5660158774        0.2831471825       -1.2742350711
 C         -1.2630917307       -1.8800844594        0.6835187591
 C         -0.2647271672       -0.7921409185        0.9971221869
 C         -0.5757753125        0.1205360349        2.0018746343
 C          0.2993678965        1.1371202983        2.3311611459
 C          1.5072877966        1.2653419024        1.6683456920
 C          1.8295734810        0.3589514230        0.6684196914
 C          0.9503302630       -0.6677697290        0.3439352755
 H          1.2060644020       -1.3515490661       -0.4505025113
 N          3.0472845133        0.4941168917       -0.0219674655
 S          4.4247532375        0.8256523250        0.8958738710
 O          4.4547263468       -0.0210023179        2.0679624583
 O          4.4819088568        2.2443927566        1.1453679732
 C          5.7153139921        0.3604475400       -0.2415355942
 C          6.2898299925       -0.8921040858       -0.1367652304
 C          7.2763223030       -1.2546294366       -1.0403827834
 C          7.6664978512       -0.3647960533       -2.0298835460
 C          7.0800636351        0.8888203367       -2.1225381900
 C          6.0944373358        1.2584667081       -1.2213227736
 H          5.6176985264        2.2243385193       -1.2490213691
 H          7.3879895899        1.5782034983       -2.8920837932
 H          8.4347324449       -0.6492129781       -2.7315128971
 H          7.7362794209       -2.2271341223       -0.9691674979
 H          5.9612534498       -1.5478684213        0.6536423058
 H          3.2073523710       -0.2662716213       -0.6683109521
 H          2.2021285012        2.0522696118        1.9146400493
 H          0.0408361031        1.8388002030        3.1106166734
 H         -1.5219324393        0.0244618944        2.5187355796
 H         -1.5169416889       -2.3794887673        1.6335454931
 C         -0.7135379333       -2.9615285238       -0.2347997272
 C         -1.6324821950       -3.8044772225       -1.0665486972
 C         -0.7094802195       -2.8272264365       -1.7270230231
 H          0.1372646726       -3.2161732961       -2.2740353366
 H         -1.1258604597       -1.9262549218       -2.1482763550
 H         -1.4190493133       -4.8590533949       -1.1561323680
 H         -2.6875858169       -3.5745750541       -1.0347530864
 H          0.1326939536       -3.4751868151        0.2121451149
