  62
        -98.93724463
 C         -2.4800355702       -1.1490454647       -0.0429111394
 C         -3.5577196996       -0.8100123236        0.8110060462
 C         -4.5589286774        0.1257865651        0.2721947090
 C         -4.4012017189        0.5997366020       -0.9758667747
 C         -5.2680656141        1.5974244148       -1.6928761854
 C         -4.7205607420        3.0232065163       -1.5104625751
 C         -5.2131743598        3.7465430169       -0.2576990580
 H         -4.6543890377        4.6821501324       -0.1822406650
 H         -6.2670550388        4.0037336115       -0.3831600613
 C         -5.0519491931        2.9708867389        1.0523593557
 H         -4.0732030357        2.4880738363        1.0763774777
 H         -5.0765799777        3.6910949880        1.8724843733
 C         -6.1563622655        1.9269762603        1.2755889264
 H         -6.9616718588        2.1024999753        0.5624960373
 H         -6.5878791001        2.0646142085        2.2691943252
 C         -5.7019352719        0.4621601792        1.1908287510
 H         -5.3700798933        0.1268294974        2.1784175004
 H         -6.5603881247       -0.1625409412        0.9222705084
 H         -3.6292041730        2.9634037927       -1.4965494373
 H         -5.0038212498        3.6209239885       -2.3792041197
 H         -5.2248478925        1.3413256717       -2.7535324956
 H         -6.2980787044        1.5251444266       -1.3566851009
 O         -3.3483312279        0.2501806336       -1.7638178763
 C         -2.3617802024       -0.6174525651       -1.3266667147
 O         -1.4661002920       -0.8291018631       -2.1665593780
 H          0.7649618949       -1.8090488447       -1.1505947861
 C          0.8696541533       -1.2727630943       -0.2205043751
 C         -0.1465588338       -1.3222111358        0.7209118153
 C          0.0047249032       -0.6017827757        1.9026733243
 C          1.1436513106        0.1466321799        2.1325316015
 C          2.1518179949        0.2013109859        1.1855750228
 C          2.0083779207       -0.5084538499        0.0014142828
 N          3.0133356720       -0.4337555490       -0.9770080977
 S          4.6063763696       -0.6877969407       -0.5233794628
 O          5.2808373164       -1.1208543342       -1.7277220763
 O          4.6979812222       -1.5713628213        0.6161366919
 C          5.1931695779        0.9350280715       -0.0838608923
 C          5.0620488303        1.9490051374       -1.0123958154
 C          5.5230829256        3.2152952301       -0.6897564495
 C          6.1072648327        3.4443559350        0.5472863374
 C          6.2348112933        2.4150102223        1.4672153758
 C          5.7746185643        1.1461206885        1.1509800391
 H          5.8472981933        0.3167536357        1.8364104365
 H          6.6894189739        2.5950424109        2.4281528476
 H          6.4652249664        4.4311289291        0.7953464465
 H          5.4252178558        4.0182869744       -1.4025541715
 H          4.6047812171        1.7296794162       -1.9629622441
 H          2.7886917797       -0.9271717409       -1.8285104334
 H          3.0412425488        0.7858100120        1.3555115735
 H          1.2481792496        0.6959865448        3.0557834646
 H         -0.7886219713       -0.6329760542        2.6364767695
 C         -1.4196070252       -2.0986238867        0.4898325332
 H         -1.7943873922       -2.4298635529        1.4677246437
 C         -1.2397478882       -3.3132839381       -0.3965214622
 C         -0.4806162445       -4.4941730088        0.1282432709
 C         -1.9646489219       -4.5804476085       -0.0607021290
 H         -2.3475362896       -5.1841238491       -0.8698896445
 H         -2.5925280125       -4.5797670033        0.8181296153
 H          0.1583562909       -5.0407231037       -0.5487688578
 H         -0.0984980634       -4.4316708560        1.1360991811
 H         -1.1348258560       -3.0700255437       -1.4467746669
 O         -3.6770942626       -1.2684943849        1.9790083590
