  62
        -98.93770820
 C         -2.4398370910       -1.2495487389       -0.2221877290
 C         -2.3380963109       -0.0665948293       -0.9950318395
 C         -3.4405457407        0.8977324509       -0.8407793700
 C         -4.4617031407        0.6179646115       -0.0120797298
 C         -5.6098198906        1.5381972317        0.2829607898
 C         -5.3082460005        2.4289417923        1.4962877094
 C         -3.9458317404        3.1197604121        1.4327337390
 H         -3.8557971503        3.7441815524        2.3242073587
 H         -3.1581314805        2.3645512720        1.4891083894
 C         -3.7289716603        3.9821971614        0.1815084686
 H         -4.6889107903        4.2071439414       -0.2847123114
 H         -3.2837607102        4.9324405915        0.4835699782
 C         -2.7940718404        3.3658691008       -0.8612049111
 H         -1.8601467604        3.0558089909       -0.3839881210
 H         -2.5421857803        4.1390950405       -1.5922941615
 C         -3.3578327406        2.1692338606       -1.6380107005
 H         -4.3334564706        2.4272615805       -2.0551822506
 H         -2.6736093406        1.9607344801       -2.4659758805
 H         -6.0954943204        3.1805905524        1.5768055891
 H         -5.3351444805        1.8092596227        2.3954404497
 H         -5.8098760706        2.1529945114       -0.5922972105
 H         -6.4901047607        0.9305468920        0.4988774301
 O         -4.5364348509       -0.5354158482        0.6986172807
 C         -3.5328395910       -1.4837166284        0.6190933911
 O         -3.7284227411       -2.4899397680        1.3302592016
 H          0.3785931591       -0.2818724194       -0.4049863695
 C          0.5674953591       -0.9193457090        0.4448518808
 C         -0.2441658011       -2.0182447388        0.6897921913
 C          0.0110377088       -2.8025408883        1.8094414216
 C          1.0584221589       -2.4983855381        2.6605557515
 C          1.8800022190       -1.4168509883        2.4012240810
 C          1.6285271891       -0.6213949988        1.2879773306
 N          2.4183730693        0.5030380810        1.0163170501
 S          3.0260606193        0.7804078102       -0.5301974201
 O          2.5518673294        2.0660896501       -0.9831093306
 O          2.7558890691       -0.3550255801       -1.3741082195
 C          4.7803713293        0.8838327901       -0.2068790602
 C          5.3834339795        2.1170246601       -0.0523960407
 C          6.7396888295        2.1686281801        0.2304386292
 C          7.4646062593        0.9933208100        0.3566344397
 C          6.8449477191       -0.2377570900        0.1991325103
 C          5.4897547491       -0.2960631499       -0.0838715396
 H          4.9675126590       -1.2292133399       -0.2234615792
 H          7.4113743790       -1.1500152300        0.2952111007
 H          8.5196929593        1.0361678300        0.5761704897
 H          7.2249722196        3.1237991400        0.3503841588
 H          4.7804082596        3.0030454501       -0.1667898311
 H          3.0975413493        0.7137853612        1.7332362500
 H          2.7012004591       -1.1792650281        3.0607627708
 H          1.2408600888       -3.1135059977        3.5286420118
 H         -0.6320840913       -3.6453606781        2.0174402120
 C         -1.3922814112       -2.3530865991       -0.2325850285
 H         -1.8993050913       -3.2395640388        0.1734152619
 C         -0.8820137912       -2.6926134898       -1.6190001384
 C         -0.3778438514       -4.0775012599       -1.8865791478
 C         -1.6760871814       -3.6235265000       -2.4823970279
 H         -1.7222653014       -3.4283602905       -3.5431784380
 H         -2.5923914314       -4.0226503897       -2.0712654577
 H          0.4750181085       -4.1936798204       -2.5376273777
 H         -0.4159123715       -4.7907632196       -1.0769509074
 H         -0.3731463611       -1.8713306401       -2.1068019788
 O         -1.3910028708        0.1974252602       -1.7836679697
