  62
        -98.94041980
 C         -1.8626448861       -1.4072814864        0.2519585640
 C         -1.6820256968       -0.0488609888       -0.0903395122
 C         -2.8328657436        0.8460694419        0.1323068527
 C         -3.9764258066        0.3401468794        0.6309430551
 C         -5.2877730035        1.0055573505        0.9937823933
 C         -5.5926449875        2.4302462197        0.5388799497
 C         -5.7935975240        2.5896609676       -0.9679181233
 H         -6.7296518248        2.0992788903       -1.2469491441
 H         -5.8978576563        3.6541348516       -1.1889482660
 C         -4.6896530352        2.0056601745       -1.8459090959
 H         -4.9675138986        2.1754439328       -2.8897766392
 H         -4.6372582091        0.9246595947       -1.7002849409
 C         -3.3005287436        2.6032863631       -1.6325748216
 H         -3.3462087268        3.6883187252       -1.7447275505
 H         -2.6500002638        2.2133221021       -2.4203180019
 C         -2.6390785818        2.2762599048       -0.2828713665
 H         -1.5599828032        2.4154859824       -0.3976782194
 H         -2.9772214125        2.9535527162        0.4976796578
 H         -6.5269463849        2.7195306256        1.0276355246
 H         -4.8267909816        3.1118869205        0.8966678734
 H         -6.0727074878        0.3368841928        0.6261784796
 H         -5.3439002160        0.9716190775        2.0874048486
 O         -4.0987971569       -0.9818918728        0.9534894142
 C         -3.0638888987       -1.8814256069        0.7748411866
 O         -3.3305702151       -3.0507179332        1.1179318041
 H          1.8563530469       -1.8965562779       -0.8375291082
 C          1.7203458139       -1.7432830192        0.2193838300
 C          0.4865077580       -1.9452667586        0.8162942543
 C          0.3643595339       -1.7266610369        2.1871288972
 C          1.4457944286       -1.3080121603        2.9367492838
 C          2.6718876282       -1.0866590108        2.3327045498
 C          2.8055335307       -1.3042397315        0.9677310347
 N          4.0433438636       -1.1068078049        0.3249658769
 S          4.1444126579       -0.0131554366       -0.9410231411
 O          3.2728473627       -0.4176220292       -2.0119527247
 O          5.5556912784        0.0502212477       -1.2559112622
 C          3.6294409416        1.5402342575       -0.2299795138
 C          2.2857058988        1.7962931735       -0.0443686636
 C          1.9175665519        2.9787636312        0.5802015172
 C          2.8848786574        3.8759593235        1.0045007851
 C          4.2302483125        3.6018988882        0.8086049081
 C          4.6077544262        2.4210400147        0.1912686210
 H          5.6405916075        2.1664263124        0.0155880012
 H          4.9824676035        4.3010912742        1.1368592590
 H          2.5876715167        4.7927165336        1.4892038392
 H          0.8692267983        3.1831735789        0.7312452826
 H          1.5418591930        1.0917440648       -0.3821142477
 H          4.8069352190       -0.9357460298        0.9649493880
 H          3.5179085302       -0.7523898518        2.9141144192
 H          1.3338366189       -1.1450154455        3.9979934418
 H         -0.5974573185       -1.8906327599        2.6547680318
 C         -0.7308927271       -2.3985009591        0.0481344579
 H         -1.0765056346       -3.3475507313        0.4834803844
 C         -0.4759031099       -2.6075429664       -1.4296774970
 C          0.1187623864       -3.8947552667       -1.9131578954
 C         -1.3232334740       -3.5872130385       -2.1818016943
 H         -1.6210033960       -3.3441473771       -3.1908827074
 H         -2.0752830726       -4.1244559710       -1.6219031342
 H          0.3470465983       -4.6483393233       -1.1745077505
 H          0.8149928775       -3.8611988880       -2.7377791645
 H         -0.1955140384       -1.6947267261       -1.9436899257
 O         -0.6052894543        0.4080262703       -0.5544042945
