  62
        -98.94416844
 C         -2.6419550615       -1.0931366981        0.1887972232
 C         -2.7272231556       -0.2824752973       -0.9691465599
 C         -3.5364394988        0.9378420303       -0.8358155796
 C         -4.1384875234        1.2062860445        0.3372213555
 C         -4.9401534773        2.4417245328        0.6267049857
 C         -4.0554674153        3.5530384583        1.2093069111
 C         -2.7739749078        3.8029724067        0.4138157157
 H         -2.2432893301        4.6237674768        0.9014327338
 H         -2.1330688853        2.9206481963        0.4836714928
 C         -3.0014481808        4.1461291656       -1.0651271734
 H         -4.0345867181        4.4605378655       -1.2168186310
 H         -2.3628961250        4.9913465064       -1.3300553264
 C         -2.6684810456        3.0130104649       -2.0376735006
 H         -1.6662878681        2.6304350759       -1.8272797896
 H         -2.6548408113        3.4269177938       -3.0492929688
 C         -3.6438751403        1.8291269858       -2.0410173866
 H         -4.6658610330        2.1935268540       -2.1621906484
 H         -3.3975011707        1.1992588220       -2.9006848493
 H         -4.6415402443        4.4725676101        1.2564260344
 H         -3.7770089352        3.2755474506        2.2288662775
 H         -5.4144178319        2.7838821085       -0.2909217843
 H         -5.7141877915        2.1877490715        1.3528152531
 O         -4.0389853933        0.3982639715        1.4248063555
 C         -3.2785660061       -0.7597036663        1.3829690376
 O         -3.2441751389       -1.3929872702        2.4588345204
 H         -0.3457656668       -0.3511723437        1.1001210644
 C          0.2276799557       -0.9528684152        0.4040198288
 C         -0.3795057052       -2.0471370432       -0.1999643718
 C          0.3746146898       -2.8207176715       -1.0724173843
 C          1.6906253413       -2.4888073723       -1.3452127811
 C          2.2824608021       -1.3855959743       -0.7590029819
 C          1.5425352752       -0.6125925089        0.1264923781
 N          2.1305908976        0.5183758394        0.7206711440
 S          3.6165596172        0.3300563501        1.4808944440
 O          3.7781380586       -1.0076692101        2.0021361987
 O          3.6855064367        1.4070828657        2.4445026116
 C          4.8025381717        0.6305191696        0.1877550445
 C          5.7990721055       -0.2932016460       -0.0594720955
 C          6.7197936256       -0.0326632735       -1.0626150771
 C          6.6279231980        1.1402801064       -1.7960646061
 C          5.6220924885        2.0586475871       -1.5335856192
 C          4.6997217445        1.8054505364       -0.5309600090
 H          3.9050030356        2.4932935742       -0.2945159196
 H          5.5531509687        2.9692785241       -2.1066076358
 H          7.3442295620        1.3402788760       -2.5772134516
 H          7.5026010055       -0.7449484490       -1.2680160045
 H          5.8261936610       -1.1945005554        0.5318490633
 H          1.4989761498        1.0406970454        1.3103430432
 H          3.3040661532       -1.1195992884       -0.9759111813
 H          2.2625562225       -3.0964436761       -2.0296390256
 H         -0.0693053802       -3.6828800402       -1.5421884093
 C         -1.8126296597       -2.3633131805        0.1572833820
 H         -1.8240666359       -2.7609079024        1.1835102486
 C         -2.4538057376       -3.3798676865       -0.7651498263
 C         -2.3169839594       -4.8462626314       -0.4896946915
 C         -3.6309876750       -4.1613628891       -0.2671675287
 H         -4.4427913768       -4.3633939733       -0.9495803390
 H         -3.9505591828       -3.9799711243        0.7491503473
 H         -2.2300080825       -5.5226241868       -1.3266645096
 H         -1.7476712913       -5.1418508319        0.3787847438
 H         -2.4725415892       -3.0492465135       -1.7971452953
 O         -2.1558528042       -0.5592780103       -2.0549075469
