  62
        -98.93842080
 C         -2.5392724826        0.1206509369       -0.0828093130
 C         -2.3315186383        1.1764300982        0.8305158666
 C         -1.7077357202        2.4056311753        0.3067509198
 C         -1.3878492990        2.4603387117       -0.9998617184
 C         -0.6850321959        3.5624231691       -1.7481198128
 C          0.8239173186        3.5791810075       -1.4685432983
 C          1.2000325144        3.5273476472        0.0094818370
 H          0.8567448451        2.5791707800        0.4297424895
 H          2.2922792688        3.5161287121        0.0699636423
 C          0.6945208766        4.6923307096        0.8586146668
 H          1.0440620487        5.6301310221        0.4212228767
 H          1.1568993347        4.5911244750        1.8437912383
 C         -0.8218817695        4.7785605830        1.0589168970
 H         -0.9993346110        5.4342483048        1.9162997836
 H         -1.3114023842        5.2445874107        0.2076302533
 C         -1.4946831640        3.4480089403        1.3781936650
 H         -0.9425420070        2.9480290014        2.1832577893
 H         -2.4903302014        3.6472287724        1.7931310284
 H          1.2495264964        4.4742772688       -1.9267544726
 H          1.2658363974        2.7005338646       -1.9456191786
 H         -0.8383150761        3.3630085635       -2.8111775697
 H         -1.1304777653        4.5261184326       -1.5203767010
 O         -1.6515864633        1.4324350752       -1.8563286070
 C         -2.1780311550        0.2317250676       -1.4250228352
 O         -2.2957172569       -0.6331190174       -2.3154011873
 H         -0.4027515224       -0.8253994863        0.6656109403
 C         -0.6211541393       -1.8528002877        0.4127847063
 C         -1.9425758713       -2.2534133637        0.2580163547
 C         -2.1950010281       -3.5886260593       -0.0273737384
 C         -1.1470600324       -4.4841912324       -0.1684611669
 C          0.1665934514       -4.0699215338       -0.0541546691
 C          0.4297115852       -2.7323067957        0.2265896129
 N          1.7533096910       -2.2565446040        0.2738466421
 S          2.0833216966       -0.6165333557        0.3691835878
 O          1.7919668287       -0.0924898227        1.6886555546
 O          1.4545270104        0.0421178477       -0.7460281521
 C          3.8490952605       -0.6655484256        0.1279119020
 C          4.3301406609       -0.8425901047       -1.1554831664
 C          5.6993645970       -0.9164800772       -1.3548195122
 C          6.5611720473       -0.8130020435       -0.2726961305
 C          6.0645824233       -0.6318725174        1.0091050249
 C          4.6955135934       -0.5581706436        1.2145866442
 H          4.2633348658       -0.4098218928        2.1911440244
 H          6.7366962545       -0.5477296659        1.8478022470
 H          7.6264984981       -0.8708987000       -0.4305101338
 H          6.0884111885       -1.0537903724       -2.3508504500
 H          3.6211907396       -0.9090595907       -1.9646441836
 H          2.4077262595       -2.8391288640        0.7733008669
 H          0.9816255080       -4.7634079946       -0.1875110414
 H         -1.3591318694       -5.5203143124       -0.3846509527
 H         -3.2117609032       -3.9280134926       -0.1415272205
 C         -3.0292005386       -1.2179555138        0.4350713230
 H         -3.1903145177       -1.0729403614        1.5150500495
 C         -4.3424509522       -1.6136931987       -0.2065115604
 C         -5.3530210668       -2.4112050240        0.5613425374
 C         -5.6048240824       -0.9630525768        0.2718418217
 H         -6.3577272172       -0.7020044686       -0.4563829464
 H         -5.5178515774       -0.2550260010        1.0833030303
 H         -5.9392560952       -3.1465440614        0.0312217253
 H         -5.1072958256       -2.6866801765        1.5759192137
 H         -4.2438456447       -1.7942540960       -1.2708202721
 O         -2.6392714484        1.0941685605        2.0537719880
