  62
        -98.94666346
 C          2.0005625317        1.4442814026       -0.0949205622
 C          1.7370324249        0.1804266260       -0.6734710670
 C          2.9052589403       -0.6871659777       -0.8650917467
 C          4.1320402964       -0.2384218173       -0.5430889841
 C          5.4219524051       -0.9953317397       -0.7085233752
 C          5.7395006015       -1.9496677924        0.4511155122
 C          4.8705067311       -3.2063735586        0.5170235995
 H          4.8812254841       -3.7051363657       -0.4525504417
 H          5.3392619687       -3.8816822767        1.2355632448
 C          3.4209167011       -2.9506014701        0.9527377720
 H          3.3504028661       -1.9661709091        1.4210465792
 H          3.1327850398       -3.6847043285        1.7084148579
 C          2.3927385872       -3.0347325325       -0.1756323663
 H          1.4134986532       -2.7843828425        0.2409128345
 H          2.3505095828       -4.0573968303       -0.5571126064
 C          2.6661960098       -2.0851609289       -1.3494931201
 H          3.5160459620       -2.4398251339       -1.9320779888
 H          1.7834745064       -2.0661271407       -1.9936396363
 H          5.6543984552       -1.3980064045        1.3902681638
 H          6.7814619102       -2.2591441760        0.3415440529
 H          6.2159782672       -0.2476602329       -0.7659863625
 H          5.4018222431       -1.5527446061       -1.6454382722
 O          4.3474500500        1.0030703677       -0.0304770998
 C          3.2904418698        1.8593932894        0.2348525611
 O          3.6231248611        2.9433414689        0.7557943012
 O          0.5889295211       -0.2073450240       -1.0103918439
 C          0.8511038524        2.3958161111        0.1842790896
 C         -0.1855681150        1.7024678874        1.0345678678
 C          0.2201151910        1.1039852002        2.2257426832
 C         -0.6876521680        0.4494340643        3.0344677226
 C         -2.0206203655        0.3702844210        2.6686958259
 C         -2.4379353996        0.9698611637        1.4874344231
 C         -1.5246774565        1.6422012511        0.6843728128
 H         -1.8788561151        2.0935951875       -0.2266307138
 N         -3.7915859485        0.9320420149        1.1054414684
 S         -4.2396731194        0.3551327528       -0.4011282689
 O         -3.6183624099        1.1410513817       -1.4344628052
 O         -5.6865535729        0.3636762556       -0.3742217275
 C         -3.6643483093       -1.3334598784       -0.4452695449
 C         -2.3280856067       -1.5958481654       -0.6712254230
 C         -1.9000144586       -2.9148610599       -0.6555065411
 C         -2.8012173108       -3.9395252938       -0.4140531380
 C         -4.1397829723       -3.6567731521       -0.1860948644
 C         -4.5762157169       -2.3423987372       -0.1980840584
 H         -5.6075923658       -2.0755582682       -0.0323502398
 H         -4.8412010868       -4.4540915642        0.0004103879
 H         -2.4579376811       -4.9621307217       -0.4049602248
 H         -0.8568359836       -3.1231603579       -0.8336191793
 H         -1.6323234543       -0.7926945728       -0.8558492332
 H         -4.4000733180        0.5328570327        1.8065774480
 H         -2.7317249914       -0.1468615308        3.2951066620
 H         -0.3558514193       -0.0098506067        3.9534461517
 H          1.2639285839        1.1590830411        2.5054487605
 H          1.2750358827        3.2268207483        0.7670110491
 C          0.3009971236        2.9467523346       -1.1145580611
 C         -0.3601122069        4.2908764652       -1.1409013719
 C          0.9915743126        4.1076689453       -1.7616328609
 H          1.0730402942        4.1249900573       -2.8381698416
 H          1.8507778663        4.5193014599       -1.2517781918
 H         -1.2111258301        4.4317108498       -1.7904899213
 H         -0.4209611262        4.8363711635       -0.2111607928
 H         -0.0929413673        2.1754627464       -1.7673711650
