  62
        -98.93947650
 C         -2.4793551135       -1.0570576941        0.3605264258
 C         -2.5207433443        0.1391826975        1.1251945610
 C         -3.6999605209        0.9913854794        0.9428251898
 C         -4.6800055818        0.5998403829        0.1086845414
 C         -5.9676978218        1.3320402516       -0.1555350641
 C         -5.8545376082        2.4377580871       -1.2135976988
 C         -5.0985008161        3.6893296599       -0.7664482210
 H         -5.2803639346        4.4598403328       -1.5181830704
 H         -5.5152697975        4.0477651084        0.1752083048
 C         -3.5829527567        3.4934109850       -0.6186628072
 H         -3.2784335426        2.5836897644       -1.1417691715
 H         -3.0586246749        4.3249193638       -1.0950369711
 C         -3.0896940492        3.4180805342        0.8266228347
 H         -2.0106326696        3.2399369584        0.8117083073
 H         -3.2654809129        4.3743230601        1.3247103243
 C         -3.7416848687        2.3067784566        1.6599212508
 H         -4.7694556223        2.5743380238        1.9052486727
 H         -3.1756144568        2.1974351597        2.5883559275
 H         -5.3764473193        2.0221356968       -2.1034497635
 H         -6.8704443570        2.7313662691       -1.4873985928
 H         -6.6804980042        0.5856636791       -0.5124293146
 H         -6.3440581669        1.7554922026        0.7760546173
 O         -4.6147235023       -0.5602418297       -0.5921717769
 C         -3.5139549775       -1.4028288869       -0.5097745886
 O         -3.6064700096       -2.4021805101       -1.2489585190
 O         -1.6168697900        0.4712366179        1.9400835196
 C         -1.2584823463       -1.9408813749        0.5490261504
 C         -0.2364291763       -1.7365154891       -0.5445301924
 C         -0.5195127217       -2.0380718938       -1.8727967242
 C          0.4415036437       -1.8531639918       -2.8495710739
 C          1.6964883341       -1.3698301118       -2.5243068909
 C          1.9928832925       -1.0734032985       -1.1986784201
 C          1.0249365321       -1.2569053830       -0.2207483101
 H          1.2586026934       -1.0040941227        0.8026076496
 N          3.2793553631       -0.6335032306       -0.8420660052
 S          3.4727826801        0.4668284384        0.4228647931
 O          3.2989643778       -0.2257895191        1.6743412175
 O          2.6433471517        1.6310361044        0.2033209368
 C          5.1943721485        0.8780445243        0.2061830362
 C          5.5451093886        2.0598366930       -0.4179780746
 C          6.8887230067        2.3489583530       -0.5995840862
 C          7.8529729334        1.4550507183       -0.1591464947
 C          7.4854837590        0.2728225894        0.4665125816
 C          6.1443327710       -0.0214799462        0.6525045501
 H          5.8112276660       -0.9220944210        1.1411551911
 H          8.2379915849       -0.4183635008        0.8102674474
 H          8.8976046100        1.6824221266       -0.3015507342
 H          7.1774322763        3.2686925100       -1.0822988650
 H          4.7609920018        2.7279484895       -0.7364300096
 H          3.8295014384       -0.3582369563       -1.6448823450
 H          2.4438226441       -1.2270144981       -3.2901348569
 H          0.2091181830       -2.0851367617       -3.8781406995
 H         -1.5009006688       -2.4052572835       -2.1304713681
 H         -0.8029246891       -1.5975710268        1.4887154197
 C         -1.5912158211       -3.4139489975        0.6912817135
 C         -0.5984548946       -4.3156472933        1.3587433628
 C         -1.8830478431       -3.9718583624        2.0501226901
 H         -2.6425184710       -4.7337303632        2.1409975730
 H         -1.8447690364       -3.2909099273        2.8882908954
 H         -0.4727068731       -5.3163441176        0.9752157989
 H          0.3119772517       -3.8671620399        1.7282622155
 H         -2.1555181501       -3.8108691577       -0.1421501357
