  62
        -98.94038345
 C         -1.8106490393       -0.8670323300       -0.8200639795
 C         -2.0356724995       -0.3320663597        0.4726820504
 C         -3.4458720396       -0.1939748695        0.8656491001
 C         -4.4207357894       -0.6130919596        0.0400325900
 C         -5.8995738795       -0.5577849194        0.3116323897
 C         -6.5429526493        0.7973638006       -0.0130101008
 C         -6.2081302694        1.9266255207        0.9623515191
 H         -6.8914358493        2.7499973107        0.7449355588
 H         -6.4109941796        1.5962516210        1.9815831091
 C         -4.7658408393        2.4429495906        0.8634612893
 H         -4.3279899992        2.1208338104       -0.0841339406
 H         -4.7700258293        3.5351926506        0.8583077890
 C         -3.8534605496        1.9986682808        2.0068219295
 H         -4.2099713298        2.4256072910        2.9468072494
 H         -2.8511233995        2.3909890906        1.8176094797
 C         -3.7435758698        0.4772324608        2.1724381199
 H         -4.6608466999        0.0785272910        2.6052375198
 H         -2.9135970399        0.2637622809        2.8504756001
 H         -7.6257666893        0.6524665807       -0.0101840109
 H         -6.2502097391        1.0898042303       -1.0241636008
 H         -6.3603872394       -1.3186498395       -0.3221444003
 H         -6.0908232697       -0.8123907292        1.3544987697
 O         -4.1602698292       -1.1766112899       -1.1702156999
 C         -2.8599486791       -1.3075416701       -1.6305088196
 O         -2.7685738790       -1.8372998403       -2.7563995795
 O         -1.1231895796        0.0129838104        1.2654775205
 C         -0.4067650592       -1.0585957702       -1.3666922791
 C          0.4795707306       -1.6776970201       -0.3138253088
 C          0.0843096203       -2.8805946899        0.2676074913
 C          0.8575321501       -3.4843560998        1.2385625816
 C          2.0577451801       -2.9173243798        1.6318422217
 C          2.4671471703       -1.7253296799        1.0502013816
 C          1.6762134705       -1.1093229201        0.0899005513
 H          2.0022244907       -0.1716016202       -0.3264629788
 N          3.6741628603       -1.1151268000        1.4246054817
 S          4.6577595605       -0.4611844303        0.2403054918
 O          4.5596625607       -1.1982065405       -0.9986509581
 O          5.9729459304       -0.4096074203        0.8437813620
 C          4.0693190407        1.2031567997        0.0114772513
 C          3.9780445210        1.7134618795       -1.2683422388
 C          3.5625298712        3.0246614094       -1.4400386392
 C          3.2478294610        3.7986939597       -0.3334257194
 C          3.3448797007        3.2706593300        0.9450966507
 C          3.7631402806        1.9618189300        1.1235987711
 H          3.8485836803        1.5190939502        2.1017616612
 H          3.0947309506        3.8745837002        1.8023800405
 H          2.9214295511        4.8177994297       -0.4692974197
 H          3.4841811614        3.4356133992       -2.4342252893
 H          4.2225354711        1.0727996593       -2.1008411187
 H          4.2082475201       -1.6165135899        2.1193534919
 H          2.6672918899       -3.3909148097        2.3866109720
 H          0.5302192499       -4.4099663197        1.6883118017
 H         -0.8496011696       -3.3289088999       -0.0453816488
 H         -0.5160356991       -1.7950909204       -2.1808474390
 C          0.1909429210        0.1936283796       -1.9917708893
 C         -0.6847537187        1.2542589296       -2.5875593297
 C          0.0882178010        1.5369908298       -1.3363780296
 H          0.9378071511        2.2013633097       -1.3956522295
 H         -0.4444461392        1.5924093500       -0.4008447897
 H         -0.3679138385        1.7209046193       -3.5080816397
 H         -1.7542548888        1.1194444897       -2.5132445999
 H          1.1131057011       -0.0216071506       -2.5242643491
