  62
        -98.94500333
 C          1.0525977029        1.3232272388        0.4155230073
 C          1.5247250044        0.6715768943       -0.7519090582
 C          2.3491480290       -0.5292885315       -0.5264270507
 C          2.6130807925       -0.9339060181        0.7282219099
 C          3.4804333463       -2.1029814258        1.0925402589
 C          4.9449630597       -1.6753494359        1.2644484032
 C          5.4831389510       -0.8288484934        0.1108973341
 H          4.9546874055        0.1269668967        0.0917986734
 H          6.5313354088       -0.6124566735        0.3279060045
 C          5.3743280344       -1.4925816820       -1.2690182438
 H          5.2260199824       -2.5669747295       -1.1537762433
 H          6.3167422995       -1.3507668156       -1.8022239132
 C          4.2689411821       -0.9237231856       -2.1610760069
 H          4.3599449600        0.1643335414       -2.2112997582
 H          4.4139695173       -1.3105528416       -3.1734055456
 C          2.8342999429       -1.2674518391       -1.7417249345
 H          2.1641025905       -0.9772551063       -2.5572072882
 H          2.7395162886       -2.3465930360       -1.5989481332
 H          5.5555337381       -2.5733424418        1.3741151502
 H          5.0291977950       -1.0919057207        2.1840698905
 H          3.1210701950       -2.5196982700        2.0349446672
 H          3.4001885686       -2.8634667333        0.3180012319
 O          2.1487366737       -0.2816627863        1.8238317449
 C          1.3603134366        0.8501223484        1.6946317313
 O          1.0014587557        1.3439986481        2.7816382156
 H         -1.0241258920        0.7162068103       -1.2600293389
 C         -1.7295143076        1.1944872595       -0.5992086881
 C         -1.3042359537        2.1579067653        0.3039768068
 C         -2.2485100091        2.7696428645        1.1210633336
 C         -3.5852723409        2.4268090319        1.0341200542
 C         -4.0023866985        1.4506113527        0.1474314005
 C         -3.0664472693        0.8290934342       -0.6705170838
 N         -3.4548017261       -0.1831284825       -1.5669095254
 S         -2.5883506672       -1.6165399243       -1.5556233827
 O         -1.3388439802       -1.4650434426       -2.2518977941
 O         -3.5064873994       -2.5919440421       -2.1052607835
 C         -2.3134691250       -1.9489510747        0.1749400499
 C         -1.0744658180       -1.7106314731        0.7321595641
 C         -0.9030303757       -1.9080886830        2.0934241248
 C         -1.9690355202       -2.3374080626        2.8682406595
 C         -3.2066255946       -2.5810927818        2.2917385719
 C         -3.3844844583       -2.3811188458        0.9329884328
 H         -4.3272748312       -2.5683453659        0.4450754754
 H         -4.0305320070       -2.9205601813        2.8983131655
 H         -1.8295544484       -2.4827007338        3.9277929561
 H          0.0570611942       -1.7084558295        2.5432265692
 H         -0.2666995836       -1.3754391662        0.0994044262
 H         -4.4468537751       -0.3752274987       -1.5636955458
 H         -5.0427152679        1.1700513613        0.0861672855
 H         -4.3074866683        2.9127533046        1.6718187568
 H         -1.9256621944        3.5117212533        1.8357052564
 C          0.1533696666        2.5478046894        0.3961207315
 H          0.3012715170        3.0414323015        1.3669057935
 C          0.4885123643        3.5438934125       -0.6976752982
 C          0.1479762588        4.9892108563       -0.5008452195
 C          1.5791610137        4.5451647781       -0.4710377229
 H          2.2216698478        4.8013940659       -1.2999324262
 H          2.0863549402        4.5230174524        0.4828975268
 H         -0.3100522476        5.2764299904        0.4332552009
 H         -0.1972520832        5.5551581162       -1.3523109301
 H          0.3896287948        3.1329708044       -1.6938620505
 O          1.2863059071        1.0476916183       -1.9295025435
