  62
        -98.94342550
 C         -2.5082272530       -1.1449323803        0.0102703154
 C         -3.4463259295       -0.5805590660        0.9166962527
 C         -4.3874413034        0.3955297171        0.3601705455
 C         -4.3463070516        0.6836037192       -0.9529274020
 C         -5.2542638065        1.6364640596       -1.6816454704
 C         -4.8152858404        3.1047936414       -1.5963534398
 C         -5.0227689591        3.7677322079       -0.2339745910
 H         -4.8810020780        4.8410037446       -0.3755653335
 H         -6.0529675286        3.6156004841        0.0893283972
 C         -4.0606152735        3.2831215805        0.8597621997
 H         -3.2106439895        2.7741236286        0.3990407114
 H         -3.6615705469        4.1437678733        1.4011638987
 C         -4.6930213433        2.3516402217        1.8939823790
 H         -3.9147409597        2.0410227025        2.5956486973
 H         -5.4573723975        2.8928505542        2.4559228717
 C         -5.3275230240        1.0869371820        1.3006118704
 H         -6.2590966976        1.3355232544        0.7926534451
 H         -5.5469481452        0.3965531441        2.1186031289
 H         -3.7616303061        3.1711576303       -1.8773668734
 H         -5.3926953573        3.6605535010       -2.3387886792
 H         -6.2710611406        1.5366764834       -1.3007979392
 H         -5.2445197217        1.3342367841       -2.7311363007
 O         -3.4536673965        0.1031315014       -1.7953811480
 C         -2.5018239179       -0.7991930290       -1.3408266262
 O         -1.7393737144       -1.2011395818       -2.2445931222
 O         -3.4975538306       -0.8885850678        2.1367009824
 C         -1.5243835460       -2.1447886375        0.5944950518
 C         -0.1771082593       -1.5150814878        0.8604127979
 C          0.3341129953       -1.4462052169        2.1511322172
 C          1.5764694631       -0.8841595039        2.3876054050
 C          2.3304253671       -0.3746154104        1.3457533158
 C          1.8278461508       -0.4365025965        0.0524413529
 C          0.5862009303       -1.0101834895       -0.1826398357
 H          0.1988732298       -1.0530822985       -1.1900558940
 N          2.5686661417        0.1049560667       -1.0119180449
 S          4.1848397011       -0.3172964778       -1.1631008566
 O          4.5035216335       -0.1113613571       -2.5589602441
 O          4.4412366099       -1.6370719613       -0.6341470302
 C          5.0374785717        0.9054578400       -0.1886769549
 C          5.9365124995        0.5084281827        0.7817088267
 C          6.5983689584        1.4779905158        1.5191448523
 C          6.3514252032        2.8199476046        1.2737060460
 C          5.4471329849        3.2021993076        0.2938311952
 C          4.7833821873        2.2380946384       -0.4478371691
 H          4.0753080860        2.4930061664       -1.2187995799
 H          5.2570836631        4.2467465545        0.1061372210
 H          6.8664489315        3.5728119312        1.8492451238
 H          7.3017841805        1.1828512487        2.2810399931
 H          6.0913505285       -0.5466585176        0.9417633405
 H          2.0946929127        0.0422598002       -1.9016135941
 H          3.2974773195        0.0665213449        1.5240363600
 H          1.9612159679       -0.8385762480        3.3949426262
 H         -0.2546505272       -1.8283021696        2.9722684049
 H         -1.9543128052       -2.4304876442        1.5640417053
 C         -1.3692009582       -3.3980028068       -0.2454728258
 C         -0.8677193705       -4.6506605060        0.4053641305
 C         -2.3000309236       -4.5505662478       -0.0245828820
 H         -2.6252485452       -5.1205931318       -0.8819065394
 H         -3.0555839748       -4.4428402051        0.7399694343
 H         -0.2039998184       -5.2911726719       -0.1550261095
 H         -0.6522341598       -4.6128436302        1.4624153200
 H         -1.0576183967       -3.2002244360       -1.2630267667
