  62
        -98.93748551
 C         -1.1363956878       -1.4746605492        0.6443740439
 C         -2.0288249379       -1.3572841065       -0.4478694415
 C         -3.0932669699       -0.3456579817       -0.3060053242
 C         -3.1219297767        0.4323862980        0.7907100236
 C         -4.1294455622        1.5114738974        1.0750504547
 C         -3.8486030962        2.7728988770        0.2343795353
 C         -4.9353817330        3.1005543803       -0.7887439718
 H         -5.8042195289        3.5105992045       -0.2697186625
 H         -4.5435206240        3.8822949408       -1.4430487200
 C         -5.4102230121        1.9232289758       -1.6454629264
 H         -6.1271889885        1.3243735771       -1.0817059581
 H         -5.9555340159        2.3434032516       -2.4932031676
 C         -4.3083980328        0.9968837136       -2.1769352328
 H         -3.3538269785        1.5209644866       -2.2260593437
 H         -4.5665084402        0.7167383529       -3.2003483176
 C         -4.1386348308       -0.3141552654       -1.3877541487
 H         -5.1031569213       -0.6078049388       -0.9628583386
 H         -3.8378762185       -1.1016996606       -2.0854214672
 H         -3.7347087244        3.6341062484        0.8946995732
 H         -2.8979292200        2.6413972009       -0.2837190108
 H         -5.1290814079        1.1340480892        0.8682317127
 H         -4.0609494500        1.7410740285        2.1387893570
 O         -2.1824987105        0.3568958538        1.7699263789
 C         -1.1803653300       -0.5938309919        1.7282153006
 O         -0.3998584563       -0.5620293092        2.7004546053
 H          2.0364466093       -1.0712671776        1.4144443965
 C          2.1024751822       -1.3536101843        0.3713277665
 C          1.0972917463       -2.1392104085       -0.1795506588
 C          1.1731081940       -2.4679496558       -1.5275698129
 C          2.2344806042       -2.0250948285       -2.2984328978
 C          3.2389481553       -1.2504839589       -1.7450759795
 C          3.1651105376       -0.9092981400       -0.4014009514
 N          4.1708197662       -0.0816558578        0.1545308032
 S          4.0826270833        1.5233949021       -0.3194573243
 O          4.2235928168        1.5887537098       -1.7506890167
 O          5.0771626943        2.2245085673        0.4586760649
 C          2.4468271906        2.0371398176        0.1694484440
 C          1.3699034736        1.6529438391       -0.6044192129
 C          0.0919633893        1.9613477000       -0.1684554499
 C         -0.0877252353        2.6483271289        1.0217033513
 C          1.0045477744        3.0290014862        1.7850750207
 C          2.2847704839        2.7123889449        1.3624395286
 H          3.1614090653        2.9815240912        1.9298819438
 H          0.8580791336        3.5585267460        2.7126329586
 H         -1.0846070786        2.8767301543        1.3636340066
 H         -0.7574865038        1.6435739751       -0.7546942633
 H          1.5396287607        1.1247897846       -1.5289613655
 H          4.1896362875       -0.1145757120        1.1651876939
 H          4.0624911617       -0.8836592306       -2.3355432513
 H          2.2799786401       -2.2865268417       -3.3447918790
 H          0.3836070069       -3.0483134102       -1.9762007240
 C         -0.0581095904       -2.5476483717        0.7001061450
 H          0.3019964564       -2.5458214888        1.7377891449
 C         -0.5945507642       -3.9281693816        0.3831076753
 C          0.2266219823       -5.1261675372        0.7501250718
 C         -1.0296623503       -4.8179869579        1.5067342697
 H         -1.8913350074       -5.4513018505        1.3577766265
 H         -0.9388968046       -4.4363933299        2.5135605432
 H          1.1711448953       -4.9516267802        1.2432975665
 H          0.2303792352       -5.9736030913        0.0820593920
 H         -1.1722257403       -3.9721890728       -0.5302825314
 O         -1.9714311453       -2.0665191909       -1.4855913890
