  62
        -98.92998716
 C          2.2138125299        0.2452523721        0.4474630333
 C          3.3354307447        0.7745749730       -0.2348873196
 C          4.4463231529       -0.1631035685       -0.5014536357
 C          4.3414966166       -1.4489691359       -0.1217298812
 C          5.2793448222       -2.6247042024       -0.3028149162
 C          6.7334407958       -2.4090545313       -0.7148136735
 C          7.5981947745       -1.7094681995        0.3332811637
 H          7.7365704999       -2.3883327105        1.1785827173
 H          8.5802543595       -1.5201381991       -0.1054582463
 C          7.0383196055       -0.3995564430        0.8821867515
 H          7.7496170910       -0.0144111810        1.6179904189
 H          6.1030843052       -0.5938407368        1.4115589750
 C          6.8034098700        0.6966988306       -0.1550820765
 H          7.7224540539        0.8738455399       -0.7169196193
 H          6.5600571947        1.6147144641        0.3865238944
 C          5.6619603088        0.4326138068       -1.1521978423
 H          5.3467569791        1.3950086669       -1.5655573674
 H          5.9954088531       -0.1862013874       -1.9815267409
 H          7.1585081996       -3.4023053676       -0.8831264160
 H          6.7820660698       -1.8816264172       -1.6627631431
 H          5.2532470646       -3.1726785921        0.6445001128
 H          4.8010168919       -3.2730572384       -1.0453516303
 O          3.2240375746       -1.9213938984        0.5082996247
 C          2.1576419953       -1.0992640019        0.8179226232
 O          1.2306786387       -1.6746812945        1.4257398740
 O          3.4284083576        1.9671114048       -0.6206660608
 C          1.0008631207        1.0767384760        0.8300654209
 C         -0.0140557190        1.1070550876       -0.2841954756
 C          0.3521184088        1.4280945423       -1.5878586139
 C         -0.5960492142        1.4522247397       -2.5937817826
 C         -1.9201864085        1.1568216868       -2.3220981225
 C         -2.2984043894        0.8418697305       -1.0218427967
 C         -1.3437677882        0.8177269293       -0.0140863784
 H         -1.6446487162        0.5490927128        0.9874639712
 N         -3.6473342491        0.5898126638       -0.7166657808
 S         -4.0293390510       -0.5633268941        0.4568559805
 O         -3.8038689831        0.0094654974        1.7598869850
 O         -3.3548931987       -1.8092813242        0.1686533214
 C         -5.7819805782       -0.7253519573        0.1703725698
 C         -6.2544007634       -1.7854326329       -0.5798525802
 C         -7.6164003523       -1.8837924129       -0.8182484890
 C         -8.4775456402       -0.9242070166       -0.3077353605
 C         -7.9886490033        0.1334726901        0.4448526034
 C         -6.6283882376        0.2370072170        0.6881046020
 H         -6.2038553654        1.0347226575        1.2747937292
 H         -8.6615658484        0.8757909824        0.8427458607
 H         -9.5367732839       -1.0029338666       -0.4950886653
 H         -7.9994978712       -2.7069093872       -1.3995873689
 H         -5.5481813469       -2.5121089137       -0.9485516397
 H         -4.2107269897        0.4562696462       -1.5461288292
 H         -2.6576431367        1.1736995385       -3.1102162081
 H         -0.3000225794        1.7003261695       -3.6019994537
 H          1.3837605180        1.6634611125       -1.7999059948
 H          0.5389886017        0.5383755422        1.6743459694
 C          1.3669903689        2.4687336407        1.3304188489
 C          1.0467811870        3.7276933554        0.5881817840
 C          0.2896116840        3.3838442893        1.8331464260
 H          0.4733976289        3.9553369405        2.7304025842
 H         -0.7318937522        3.0494284106        1.7241089936
 H          1.7737955950        4.5243942305        0.6237267265
 H          0.5362638853        3.6464471356       -0.3580953135
 H          2.2983162026        2.4636817149        1.8876521637
