  62
        -98.94018136
 C          1.9285496394        1.2721407999       -0.4526385413
 C          1.5499013494        0.0392954797       -1.0330949009
 C          2.4465679997       -1.1070357101       -0.7905970811
 C          3.5285975599       -0.9533256898       -0.0102922215
 C          4.6014029602       -1.9549323896        0.3408720083
 C          4.1727530105       -3.3991321596        0.6248597287
 C          2.8233331308       -3.5445731597        1.3433762092
 H          2.4794072008       -2.5729757497        1.7039577692
 H          2.9519072812       -4.1874410195        2.2164642993
 C          1.7375502206       -4.1609271800        0.4587996697
 H          0.9506919009       -4.5646476600        1.1008963901
 H          2.1680648605       -4.9947507200       -0.1011198703
 C          1.0681577501       -3.1893794603       -0.5115892102
 H          0.4687881002       -2.4718608403        0.0556423499
 H          0.3784169300       -3.7621780205       -1.1373937799
 C          2.0275616997       -2.4041807303       -1.4221932607
 H          1.4845952093       -2.1345828405       -2.3322015705
 H          2.8872756897       -3.0092582202       -1.7009019009
 H          4.9599459208       -3.8450663894        1.2354809985
 H          4.1422601303       -3.9620363998       -0.3069085112
 H          5.3394294199       -1.9543051696       -0.4671923719
 H          5.0944836405       -1.5410567593        1.2241745781
 O          3.8336404299        0.2428291603        0.5702912482
 C          3.0573507197        1.3672656602        0.3650587183
 O          3.4756786097        2.3879352504        0.9498695980
 H         -0.9192369504        0.8608157295       -0.1546102202
 C         -0.9097632903        1.6753826896        0.5498425197
 C          0.0735650895        2.6512242797        0.4569098191
 C          0.0737711797        3.6950039499        1.3740667390
 C         -0.8815708400        3.7519234699        2.3729910993
 C         -1.8359725298        2.7585556298        2.4860106398
 C         -1.8451341799        1.7078516696        1.5732787000
 N         -2.8057155697        0.6936796695        1.6769424305
 S         -2.4520040696       -0.9158267405        1.3486085706
 O         -3.2296028391       -1.6563743305        2.3232907610
 O         -1.0309716296       -1.1596673003        1.3547612302
 C         -3.1857295901       -1.1740150809       -0.2530218391
 C         -2.4168382805       -1.2504058510       -1.3951595793
 C         -3.0524437109       -1.4329239413       -2.6150299991
 C         -4.4328334609       -1.5346618215       -2.6730714686
 C         -5.1914695705       -1.4567937514       -1.5141847083
 C         -4.5642944601       -1.2750453911       -0.2936128686
 H         -5.1129687798       -1.2232655111        0.6321183016
 H         -6.2656803305       -1.5367328116       -1.5598897479
 H         -4.9192300612       -1.6758245318       -3.6255465984
 H         -2.4567054312       -1.4893590313       -3.5122012393
 H         -1.3434834205       -1.1560832908       -1.3359057997
 H         -3.4075549795        0.7720617195        2.4835828107
 H         -2.5681040595        2.7881021798        3.2791059701
 H         -0.8721459699        4.5671231700        3.0807065492
 H          0.8422878495        4.4516201300        1.3134131686
 C          1.1408309092        2.5650292097       -0.6088130512
 H          1.8617263591        3.3727909799       -0.4192996116
 C          0.5486773086        2.7699600094       -1.9886728310
 C          0.2405809783        4.1638933493       -2.4429263012
 C          1.3813499782        3.4098175993       -3.0565217814
 H          1.2816937079        3.0513067892       -4.0698390713
 H          2.3876285082        3.7052390295       -2.7960105118
 H          0.4741836184        4.9742549994       -1.7689326114
 H         -0.6461931620        4.3266655090       -3.0357197209
 H         -0.1252965013        1.9806120292       -2.2916134307
 O          0.5291742492       -0.1239987106       -1.7514256805
