  62
        -98.93702713
 C          2.6306821520        0.2731430239       -0.2099756866
 C          2.0282213899        0.9978919951        0.8453617701
 C          1.3709661749        2.2752326833        0.4919284083
 C          1.4394727098        2.7189415073       -0.7753989746
 C          0.8519642524        3.9706975362       -1.3748303752
 C         -0.6588394799        3.8651969412       -1.6205831540
 C         -1.4610462278        3.3206837981       -0.4421970493
 H         -2.5065132304        3.2550350087       -0.7575921824
 H         -1.1348239326        2.3016310640       -0.2233672554
 C         -1.4095325900        4.1650596715        0.8294407444
 H         -1.7380899092        5.1811922365        0.5990299552
 H         -2.1288885916        3.7292766868        1.5274803921
 C         -0.0546633230        4.2343175708        1.5404231076
 H          0.6065512502        4.9602011735        1.0736084655
 H         -0.2403790768        4.5919742213        2.5573090264
 C          0.6558353826        2.8912741230        1.6695257205
 H          1.4078605054        2.9612249657        2.4645095114
 H         -0.0602626994        2.1340445299        2.0140937153
 H         -0.8196458547        3.1936965779       -2.4676966438
 H         -1.0317762634        4.8547586063       -1.8929705570
 H          1.0791102677        4.8297079597       -0.7502780734
 H          1.3508027996        4.1151222663       -2.3361744277
 O          2.0992872339        2.0226749405       -1.7472865527
 C          2.6475041318        0.7809104889       -1.5101938636
 O          3.1460002707        0.2386024301       -2.5200102135
 H          0.6048717618       -0.9763022530        0.7984568296
 C          0.7992060331       -1.8787267605        0.2418316697
 C          2.0686178619       -2.1423230759       -0.2464698019
 C          2.2786951563       -3.3332660459       -0.9330875975
 C          1.2365002915       -4.2192829676       -1.1405994461
 C         -0.0422617713       -3.9212212784       -0.7032515083
 C         -0.2598925652       -2.7367121029       -0.0104867405
 N         -1.5372975088       -2.3597297228        0.4376879236
 S         -1.9169595117       -0.7145016582        0.2679580926
 O         -1.3387071363       -0.2044756451       -0.9541175507
 O         -1.5772010238       -0.0279321964        1.4876659409
 C         -3.6929306935       -0.8029687023        0.1224061517
 C         -4.4489817499       -0.9156118174        1.2740698515
 C         -5.8264201200       -1.0203041327        1.1635448894
 C         -6.4215734024       -1.0113994959       -0.0893513535
 C         -5.6501060929       -0.8952715521       -1.2359162831
 C         -4.2716123077       -0.7918113551       -1.1323969285
 H         -3.6309205831       -0.6911372840       -1.9939594841
 H         -6.1153605476       -0.8844792025       -2.2083734609
 H         -7.4937839561       -1.0922674779       -0.1727247564
 H         -6.4293143016       -1.1074964526        2.0529134879
 H         -3.9414021438       -0.9080990512        2.2245952638
 H         -2.2738166768       -2.9516061539        0.0773043890
 H         -0.8628140986       -4.5942970203       -0.9000728649
 H          1.4147494758       -5.1397039562       -1.6755677834
 H          3.2609961761       -3.5522228664       -1.3241512564
 C          3.1830154771       -1.1349719379       -0.0625929829
 H          3.8902925769       -1.2709167104       -0.8935859691
 C          3.9191052694       -1.3896758531        1.2380559831
 C          5.0016572002       -2.4243494689        1.2820570348
 C          5.3511008966       -0.9695543415        1.3672352354
 H          5.6837866807       -0.5670159341        2.3118243946
 H          5.8119409988       -0.5042163376        0.5077811430
 H          5.0961563724       -3.0286935204        2.1709552265
 H          5.2390248920       -2.9456026023        0.3673374040
 H          3.2888220618       -1.2790789841        2.1106632928
 O          2.0136652781        0.6186683360        2.0478625177
