  62
        -98.94302335
 C          1.7526258006        0.9621747605        0.2975253597
 C          2.9686074007        0.8414825606        1.0217608694
 C          3.7284467904       -0.3992288997        0.8237821198
 C          3.2170482700       -1.3620540499        0.0361717104
 C          3.9022862896       -2.6557642102       -0.2927779892
 C          4.7485251993       -2.5246029610       -1.5669892294
 C          5.6686336396       -1.3037291912       -1.5752497503
 H          6.2375316293       -1.3312974618       -2.5071711004
 H          5.0593426097       -0.3971761611       -1.5991248905
 C          6.6378334999       -1.2308749009       -0.3869537906
 H          6.7222839798       -2.2113596107        0.0831129499
 H          7.6290784599       -0.9641606213       -0.7596574810
 C          6.2662982904       -0.1917434203        0.6727432090
 H          7.1194375006       -0.0729729302        1.3459772287
 H          6.0933527305        0.7750742395        0.1927008986
 C          5.0446127606       -0.5281838496        1.5371689995
 H          5.0114283410        0.1913471608        2.3606036592
 H          5.1580793105       -1.5283624295        1.9603031400
 H          5.3447060891       -3.4317674112       -1.6806780292
 H          4.0755509291       -2.4510623013       -2.4245129593
 H          3.1401837394       -3.4205039302       -0.4510189286
 H          4.5313019998       -2.9513185700        0.5446215908
 O          2.0242611898       -1.2387122900       -0.5945226193
 C          1.2691792501       -0.0734806398       -0.5047330397
 O          0.2234588899       -0.1136063899       -1.1777681593
 O          3.3988684411        1.7342262509        1.7993261689
 C          0.9609958909        2.2450332508        0.4925053793
 C         -0.4642584691        1.9086076212        0.8430383499
 C         -0.7868280588        1.5395556719        2.1454518701
 C         -2.0759531888        1.1623510624        2.4734766107
 C         -3.0630668391        1.1180692021        1.5041335610
 C         -2.7427258294        1.4630143414        0.1977132307
 C         -1.4581567694        1.8822064510       -0.1213365398
 H         -1.2209372096        2.1425875605       -1.1407856000
 N         -3.7168473697        1.3699534912       -0.8089074390
 S         -4.8019069599        0.1023868714       -0.7622748081
 O         -5.1763749503       -0.1255195691       -2.1415642879
 O         -5.8910232696        0.4411907221        0.1231812921
 C         -3.9514018001       -1.3301504084       -0.1124205776
 C         -4.6516261600       -2.1611960679        0.7407071830
 C         -4.0347673001       -3.2998040978        1.2322098533
 C         -2.7282723803       -3.5868692782        0.8677483631
 C         -2.0390158903       -2.7417688788        0.0129363925
 C         -2.6523937502       -1.6047192789       -0.4900552478
 H         -2.1032692602       -0.9413839193       -1.1393600083
 H         -1.0174479504       -2.9465223692       -0.2671727777
 H         -2.2432999804       -4.4701470682        1.2528289134
 H         -4.5714945401       -3.9560810473        1.8982535538
 H         -5.6610882199       -1.8931284375        1.0080397731
 H         -3.3509531799        1.5010089906       -1.7406444091
 H         -4.0713755091        0.8173347425        1.7399782414
 H         -2.3146470586        0.8885787829        3.4897971909
 H         -0.0107029886        1.5443418121        2.8980633799
 H          1.4280698712        2.7211518011        1.3693074290
 C          1.0704550108        3.2424770002       -0.6514436112
 C          2.3861383707        3.4707308696       -1.3320965917
 C          1.2541557103        2.8391203295       -2.0825801810
 H          0.7566133102        3.4235669892       -2.8432682012
 H          1.3107566300        1.7868239594       -2.3122804106
 H          2.6730799608        4.4810886294       -1.5813281122
 H          3.2127429706        2.8425659995       -1.0331158116
 H          0.4600247710        4.1228176104       -0.4729978614
