  62
        -98.94280789
 C         -1.9952963872       -1.4644333014       -0.0309468515
 C         -1.6925770238       -0.1575411895       -0.4829894400
 C         -2.8479279384        0.7073738637       -0.7691334368
 C         -4.0929672137        0.2311217329       -0.5926731637
 C         -5.3516536137        1.0240137515       -0.7894017249
 C         -5.7849201065        1.7077600007        0.5152884083
 C         -4.6604683313        2.4674850253        1.2195740455
 H         -5.0907400623        2.9300683774        2.1105216391
 H         -3.9070536059        1.7537440930        1.5607637393
 C         -3.9846752224        3.5449441140        0.3599428846
 H         -4.6253123767        3.7990859915       -0.4853549316
 H         -3.8678412886        4.4490157097        0.9611804450
 C         -2.5936771372        3.1682931386       -0.1539159206
 H         -1.9760657514        2.8232474619        0.6793420346
 H         -2.1275910192        4.0705228895       -0.5590193892
 C         -2.5592358797        2.1002216825       -1.2543270256
 H         -1.5441299240        2.0711945604       -1.6615724473
 H         -3.2429463941        2.3778818762       -2.0591082659
 H         -6.1605652078        0.9422886958        1.1984013704
 H         -6.6044255106        2.3926881959        0.2900078701
 H         -5.1886908959        1.7687374023       -1.5660814773
 H         -6.1411058727        0.3430604393       -1.1120316795
 O         -4.3460655546       -1.0288290794       -0.1542200221
 C         -3.3111323557       -1.8964717132        0.1550860164
 O         -3.6847800855       -3.0052341902        0.5863993537
 O         -0.5248724129        0.2806974589       -0.6405760252
 C         -0.8990828210       -2.4536025391        0.3251979075
 C          0.1769360637       -1.7693377422        1.1336336428
 C         -0.1759192330       -1.1903318215        2.3509176947
 C          0.7683940672       -0.5566646751        3.1338758811
 C          2.0881031658       -0.4900923349        2.7216440777
 C          2.4534000135       -1.0694881260        1.5129850389
 C          1.5008631823       -1.7084021928        0.7285022432
 H          1.8090317679       -2.1238669137       -0.2158607998
 N          3.7961402471       -1.0524552186        1.0936144230
 S          4.2412544850       -0.4905166424       -0.4183360407
 O          3.5614951405       -1.2372544497       -1.4438372085
 O          5.6863757970       -0.5740071733       -0.4210144645
 C          3.7560266255        1.2264405585       -0.4380450670
 C          4.7359431483        2.1893583879       -0.2872049017
 C          4.3676813818        3.5240527245       -0.2499149297
 C          3.0289241818        3.8720597861       -0.3520175453
 C          2.0592034036        2.8925501543       -0.4965947143
 C          2.4191602557        1.5539921221       -0.5419771071
 H          1.6715938826        0.7851558712       -0.6533928471
 H          1.0146739751        3.1506512115       -0.5719704618
 H          2.7394472737        4.9107316566       -0.3190850101
 H          5.1220815650        4.2863235447       -0.1386248535
 H          5.7633635639        1.8715280845       -0.2111047345
 H          4.4315740463       -0.6760509630        1.7832761083
 H          2.8291039983        0.0043038058        3.3315886099
 H          0.4766877994       -0.1080898596        4.0716460680
 H         -1.2085629620       -1.2404863601        2.6706213744
 H         -1.3863116496       -3.1959557474        0.9798076860
 C         -0.3486953026       -3.2232677091       -0.8661299695
 C         -1.1969079338       -3.5134303799       -2.0673743996
 C         -0.0444443293       -2.5628742767       -2.1755238589
 H          0.8406299362       -2.8724062657       -2.7125774926
 H         -0.2524400188       -1.5085497612       -2.2638240352
 H         -1.1117958781       -4.4847194426       -2.5311009045
 H         -2.1985438800       -3.1083459649       -2.0847281572
 H          0.3251905984       -4.0171274598       -0.5569763525
