  62
        -98.93781085
 C         -1.3838035211       -1.5109357896        0.0480959399
 C         -2.5302424587       -1.0741160597        0.7518570971
 C         -3.1985336991        0.1428602896        0.2573864816
 C         -2.6533438612        0.8103006962       -0.7751312244
 C         -3.1402713539        2.0664406477       -1.4525462185
 C         -3.6127031974        3.2032126838       -0.5334658780
 C         -5.1254058558        3.4288808312       -0.5718772108
 H         -5.3316316717        4.4576778717       -0.2685455872
 H         -5.4656303698        3.3184187003       -1.6036099160
 C         -5.9446328159        2.5084436702        0.3311003389
 H         -5.7864580501        2.7919011629        1.3739505374
 H         -6.9999515718        2.6773830388        0.1044641986
 C         -5.6450031991        1.0150501365        0.1875189512
 H         -5.5048691734        0.7524993085       -0.8604187268
 H         -6.5188825691        0.4637702159        0.5410274937
 C         -4.4354353327        0.5488326988        1.0115832565
 H         -4.1622306687        1.3156456341        1.7430344098
 H         -4.7066976132       -0.3366591780        1.5953681771
 H         -3.1261030491        4.1221767214       -0.8650115414
 H         -3.2776292719        3.0166107209        0.4862137723
 H         -3.9371688057        1.7989683573       -2.1514114215
 H         -2.2949271892        2.4063984055       -2.0551961828
 O         -1.5208166973        0.3793693305       -1.3963060797
 C         -0.8500521035       -0.7638977103       -1.0009393477
 O          0.1806853842       -0.9970520981       -1.6609001671
 O         -2.9836349725       -1.6804452502        1.7616431404
 C         -0.6639120240       -2.7486050343        0.5536988633
 C          0.8125598037       -2.4621030793        0.6700636413
 C          1.8085533687       -3.2663103603        0.1320038914
 C          3.1418877278       -2.9167928514        0.2651354513
 C          3.5081190234       -1.7505057633        0.9106014132
 C          2.5176863732       -0.9390517273        1.4519856507
 C          1.1891271516       -1.3134692072        1.3565581867
 H          0.4320236996       -0.6700747128        1.7822295053
 N          2.8261050761        0.2845460764        2.0874958904
 S          2.3192613906        1.6708116749        1.2884840563
 O          2.7628807662        2.7702883024        2.1198361846
 O          0.9047664186        1.5982306482        1.0289869616
 C          3.2624250827        1.6646488502       -0.2262474622
 C          4.4210460354        2.4167102677       -0.2809190158
 C          5.2060439982        2.3605926896       -1.4206064340
 C          4.8266099870        1.5466825830       -2.4777754987
 C          3.6638600708        0.7958439592       -2.4044824181
 C          2.8687534957        0.8500084170       -1.2688830942
 H          1.9567922190        0.2767270295       -1.1973882931
 H          3.3614481630        0.1604924998       -3.2214372675
 H          5.4391521646        1.4970255926       -3.3642475772
 H          6.1091503714        2.9464608566       -1.4796870346
 H          4.6730177658        3.0349694900        0.5656679753
 H          3.8062702863        0.3837625829        2.3173350487
 H          4.5459053254       -1.4631559573        0.9898218718
 H          3.9043256818       -3.5515142850       -0.1597972045
 H          1.5427637391       -4.1580558018       -0.4112653066
 H         -1.0598990802       -2.8953497731        1.5732410170
 C         -0.9789921605       -4.0193254014       -0.2216259542
 C         -2.2431232666       -4.1479643653       -1.0164065179
 C         -0.9220295264       -4.0724765122       -1.7180322419
 H         -0.5402283201       -4.9682647184       -2.1854850950
 H         -0.6661302937       -3.1625175725       -2.2372698060
 H         -2.7656815912       -5.0926398013       -0.9972041524
 H         -2.8963949997       -3.2884366902       -1.0610183601
 H         -0.6594532820       -4.9098658201        0.3107240683
