  62
        -98.94506817
 C         -2.3612145575       -0.3563838786        0.0703716703
 C         -1.4942447998        0.2535458581       -0.8616050955
 C         -1.4167028000        1.7264195991       -0.8443992724
 C         -2.1735059402        2.4028487070        0.0393057338
 C         -2.2742724495        3.8916580249        0.2504800604
 C         -1.0698289498        4.4789546374        0.9980352433
 C          0.2897752600        4.0301278196        0.4703574066
 H          1.0557708598        4.4750362512        1.1123535106
 H          0.3796968450        2.9477986318        0.5811702845
 C          0.5931568020        4.4368138509       -0.9704896413
 H          0.4916865470        5.5205105768       -1.0650451623
 H          1.6395658694        4.1827662108       -1.1588430035
 C         -0.2558277692        3.7653571677       -2.0543512406
 H         -1.2236441098        4.2487459550       -2.1604491084
 H          0.2657538454        3.9020535040       -3.0059211716
 C         -0.4408214412        2.2642912326       -1.8623767967
 H         -0.7410067851        1.8182730039       -2.8178256046
 H          0.5294702744        1.8141699699       -1.6208672912
 H         -1.1360950055        4.1744980164        2.0457909462
 H         -1.1394603260        5.5681482346        0.9567994547
 H         -2.4159763689        4.3968694376       -0.7005701233
 H         -3.1706290092        4.0583625720        0.8527907999
 O         -2.9988223073        1.7692830293        0.9241046699
 C         -3.0952753644        0.3938241859        0.9848410570
 O         -3.8608188288       -0.0366404117        1.8738989795
 H         -0.4727468191       -0.9559174631        1.6587928818
 C         -0.1734614203       -1.8389649777        1.1129262604
 C         -1.0792465486       -2.4669439910        0.2677607879
 C         -0.6701124788       -3.6111656427       -0.4061312573
 C          0.6213335910       -4.0882054201       -0.2599134644
 C          1.5371771434       -3.4229048639        0.5345917066
 C          1.1333042879       -2.2839654602        1.2213742241
 N          2.0294306524       -1.5456568500        2.0234093866
 S          2.3567417341        0.0263833017        1.5364390536
 O          3.3111352921        0.5269774261        2.5029959679
 O          1.1308270362        0.7682432576        1.4059096533
 C          3.1671610150       -0.1596043395       -0.0424391603
 C          4.5463486248       -0.0796046168       -0.0872846025
 C          5.1933348157       -0.2843747162       -1.2947278891
 C          4.4534216421       -0.5741330080       -2.4316092941
 C          3.0712599263       -0.6556083941       -2.3681459915
 C          2.4151565622       -0.4498463329       -1.1633065357
 H          1.3388539393       -0.5062659116       -1.0989281851
 H          2.4877020050       -0.8798641077       -3.2466221211
 H          4.9555464129       -0.7367883409       -3.3722925228
 H          6.2683176119       -0.2193878197       -1.3450971595
 H          5.0772942568        0.1515461958        0.8221585847
 H          2.9037267041       -2.0222341075        2.1997306736
 H          2.5537753431       -3.7758145002        0.6230147975
 H          0.9246971732       -4.9778272526       -0.7903633499
 H         -1.3613659379       -4.1258643974       -1.0533547107
 C         -2.4592203663       -1.8699411444        0.1320866321
 H         -3.0314121810       -2.1024076350        1.0427364608
 C         -3.2199533094       -2.3919177612       -1.0704548626
 C         -4.0588027541       -3.6288704394       -0.9607475757
 C         -4.7143672571       -2.2867276385       -1.0791746070
 H         -5.2087660323       -2.0308384601       -2.0042269009
 H         -5.1832917309       -1.8629138177       -0.2027311527
 H         -4.1080365470       -4.2959390716       -1.8082169331
 H         -4.0957648303       -4.1257096404       -0.0030316327
 H         -2.6995471755       -2.2041136894       -2.0027238501
 O         -0.8048191300       -0.4050601713       -1.6861129525
