  62
        -98.94025311
 C         -2.4852245799       -1.1238540953        0.0410348720
 C         -2.6631906456       -0.0095408655       -0.8136681594
 C         -4.0508268870        0.4428083025       -0.9912943500
 C         -5.0450903273       -0.2174619688       -0.3698788241
 C         -6.4938414696        0.1715659027       -0.4173233028
 C         -6.8516398173        1.1186738595        0.7368081386
 C         -5.8876452075        2.2949424946        0.8923591189
 H         -6.2555410568        2.9098522965        1.7165772809
 H         -4.9063608073        1.9159772023        1.1873205345
 C         -5.7365545163        3.1625720345       -0.3649077601
 H         -6.5715824365        2.9814004827       -1.0425791616
 H         -5.7785845934        4.2136867985       -0.0719820185
 C         -4.4204067597        2.9629601658       -1.1188648766
 H         -3.5811229934        3.0502024779       -0.4239622703
 H         -4.3229102326        3.7679709862       -1.8521279150
 C         -4.2802561019        1.6360424347       -1.8755473284
 H         -5.1520553227        1.4816860666       -2.5145438620
 H         -3.3941538674        1.7092832898       -2.5129285205
 H         -7.8634651066        1.4941624121        0.5739671096
 H         -6.8467160844        0.5468107111        1.6676016553
 H         -6.7051690738        0.6488003895       -1.3721211710
 H         -7.0960312939       -0.7344837788       -0.3323240352
 O         -4.8351259907       -1.2986433603        0.4246961087
 C         -3.5544679992       -1.7701707538        0.6602657798
 O         -3.4994137456       -2.7521369333        1.4285158948
 H          1.4638799651       -0.8879209878       -0.4458200652
 C          1.0632037709       -0.3114916539        0.3708385274
 C         -0.2078094661       -0.5646517524        0.8600811689
 C         -0.6789621185        0.2054916183        1.9209818039
 C          0.0979861086        1.2085505420        2.4661101525
 C          1.3687048273        1.4559740169        1.9767717363
 C          1.8497129792        0.6922391936        0.9206101065
 N          3.1243923475        0.9366153607        0.3851882747
 S          4.0306099874       -0.3663972822       -0.1878139230
 O          3.6141079512       -0.6781928677       -1.5315577886
 O          3.9904164148       -1.4547104918        0.7631166072
 C          5.6549506155        0.3698008414       -0.2190330608
 C          5.9903511732        1.1864602465       -1.2826481769
 C          7.2388710604        1.7874472213       -1.2978885857
 C          8.1262400837        1.5636935782       -0.2554283132
 C          7.7764610074        0.7400106477        0.8039290690
 C          6.5285778617        0.1369450831        0.8262571241
 H          6.2163255053       -0.5172257695        1.6243637164
 H          8.4698171131        0.5653897680        1.6107812180
 H          9.0976459573        2.0321208306       -0.2704316556
 H          7.5152838913        2.4263179601       -2.1210921269
 H          5.2716046980        1.3234142698       -2.0738103382
 H          3.6811518670        1.5542709607        0.9597987072
 H          1.9775423141        2.2385619028        2.4034443486
 H         -0.2848142923        1.7993573329        3.2849278063
 H         -1.6689919777        0.0056422948        2.3095330651
 C         -1.0889458300       -1.6569018886        0.3037425362
 H         -1.1969652729       -2.4319149967        1.0777386740
 C         -0.5320179381       -2.2995881473       -0.9492663378
 C          0.4839016704       -3.3959552616       -0.8474777958
 C         -0.9162934205       -3.7089895651       -1.2802017188
 H         -1.0919420559       -3.9669818857       -2.3137200607
 H         -1.5650547583       -4.2210001896       -0.5842166830
 H          1.2757056519       -3.4325366624       -1.5812250326
 H          0.7939974555       -3.7001900090        0.1412838683
 H         -0.4420003836       -1.5986571957       -1.7720193409
 O         -1.7155818299        0.5794869267       -1.3965816832
