  62
        -98.94123648
 C         -2.0194638204       -1.2086210979        0.1181152348
 C         -2.8183532076       -0.6582226390        1.1528389882
 C         -4.0142470202        0.0770641762        0.7278757797
 C         -4.2790081228        0.2161950707       -0.5836500132
 C         -5.4754371751        0.9089249926       -1.1776432204
 C         -5.3194002843        2.4304429366       -1.3043255090
 C         -5.3840599678        3.2027653942        0.0139499599
 H         -5.4793008584        4.2606766189       -0.2387405882
 H         -6.2844563123        2.9159490353        0.5581453113
 C         -4.1549024540        3.0196678369        0.9152282386
 H         -3.3295228494        2.6130916839        0.3256036714
 H         -3.8297245945        3.9930601089        1.2898612718
 C         -4.3877212192        2.1208611443        2.1298951020
 H         -3.4456509292        2.0328183863        2.6772136824
 H         -5.1196645432        2.5858775877        2.7939367409
 C         -4.8699910859        0.7053867726        1.7862360176
 H         -5.9117666761        0.7305545412        1.4671585438
 H         -4.7933513549        0.0900254925        2.6860517458
 H         -4.3727927862        2.6442245904       -1.8064453955
 H         -6.1251022954        2.7878163910       -1.9497459664
 H         -5.6094223217        0.4930573951       -2.1786150428
 H         -6.3619559261        0.6811971230       -0.5849147707
 O         -3.4675093922       -0.2899647927       -1.5478404963
 C         -2.3087973321       -0.9919845774       -1.2304962647
 O         -1.6550817563       -1.3524285871       -2.2255127121
 O         -2.5425722502       -0.7755284787        2.3768527963
 C         -0.7764532900       -1.9793138154        0.5269855924
 C          0.4194168264       -1.4804092199       -0.2439025654
 C          1.1633007070       -2.2693198276       -1.1102494713
 C          2.2347712085       -1.7309187196       -1.8019546087
 C          2.5932519378       -0.4060994204       -1.6389572541
 C          1.8654021759        0.3883945005       -0.7613878484
 C          0.7946620080       -0.1534445837       -0.0676010148
 H          0.2214702329        0.4694577561        0.6086301095
 N          2.2301551148        1.7318402511       -0.5764272199
 S          3.8547520001        2.1075018310       -0.4468129155
 O          3.8976385900        3.3171362018        0.3450606570
 O          4.4419342398        2.1962671441       -1.7606001805
 C          4.5853422986        0.7476257226        0.4484783381
 C          4.1117433915        0.4727002431        1.7161466305
 C          4.6464328956       -0.5979153092        2.4138280850
 C          5.6410125302       -1.3716016015        1.8349875871
 C          6.1103759252       -1.0788159110        0.5641733265
 C          5.5776759243       -0.0101500120       -0.1390469101
 H          5.9111884731        0.2509489003       -1.1301868006
 H          6.8854128693       -1.6804122739        0.1175084018
 H          6.0522897814       -2.2067551282        2.3795754054
 H          4.2831578797       -0.8261883215        3.4030178974
 H          3.3412975594        1.0963370831        2.1407596866
 H          1.6794666623        2.2211357914        0.1127323327
 H          3.4099219229        0.0315366019       -2.1897362573
 H          2.7943412143       -2.3509485371       -2.4854586347
 H          0.8855653178       -3.2980221769       -1.2682676566
 H         -0.6308414045       -1.7096976653        1.5866566195
 C         -0.9334943983       -3.4917414059        0.4891171593
 C         -2.2698458120       -4.1327337669        0.7116449976
 C         -1.6179765409       -4.2077185257       -0.6349056890
 H         -1.2160924788       -5.1579158001       -0.9554238987
 H         -2.0203900033       -3.6119259839       -1.4387206347
 H         -2.3168133851       -5.0278769585        1.3134676772
 H         -3.1240266775       -3.4817029032        0.8300357021
 H         -0.0816865566       -3.9947502772        0.9364363632
