  62
        -98.94267822
 C          1.6024762318        1.4716771683        0.2436966217
 C          1.3251193113        0.3699466389       -0.5974623589
 C          2.0081333702       -0.8883853818       -0.2675090592
 C          2.8068022997       -0.9336245829        0.8140297112
 C          3.6113691186       -2.1229370737        1.2561338510
 C          4.8593645288       -2.2844664643        0.3648261015
 C          4.8679515282       -3.5583133539       -0.4802649090
 H          5.6707977387       -3.4595498142       -1.2138411286
 H          5.1094494873       -4.4081978744        0.1614127507
 C          3.5605815283       -3.8782771626       -1.2107536498
 H          3.7906372881       -4.6439042024       -1.9547360800
 H          2.8497779077       -4.3246572923       -0.5135798703
 C          2.8810506196       -2.6956334318       -1.9125341996
 H          2.4802499597       -3.0511235110       -2.8638006499
 H          3.6081926003       -1.9170421122       -2.1436005889
 C          1.7031117097       -2.0769783812       -1.1368975298
 H          0.9662672003       -1.7114626303       -1.8585049900
 H          1.2105234188       -2.8449230511       -0.5325104004
 H          4.9277433798       -1.4116369240       -0.2876455881
 H          5.7541577586       -2.2810832852        0.9890440219
 H          3.9022673682       -1.9490278944        2.2925647812
 H          2.9898307379       -3.0151510632        1.2177504104
 O          3.0374688801        0.1435352066        1.6098324618
 C          2.4328012512        1.3634084372        1.3564863220
 O          2.7101626615        2.2600733466        2.1807805625
 H         -0.5246431190        1.2198812694        1.6000956006
 C         -1.1527421783        1.7284421101        0.8826972805
 C         -0.5852557872        2.5978897301       -0.0401472488
 C         -1.4229394063        3.2455514312       -0.9399556489
 C         -2.7858913065        3.0031982522       -0.9304981597
 C         -3.3383701176        2.0973177122       -0.0435356203
 C         -2.5097380285        1.4531676912        0.8675811198
 N         -3.0136787297        0.5030506612        1.7818918091
 S         -2.4708182208       -1.0741783191        1.6042084687
 O         -3.1992588918       -1.8330807290        2.5992287080
 O         -1.0342510909       -1.1186435903        1.6931583593
 C         -3.0332142504       -1.5459980980       -0.0220659718
 C         -2.3232449796       -1.1356925181       -1.1323762013
 C         -2.8193744493       -1.4461022071       -2.3898638616
 C         -4.0062500097       -2.1507189762       -2.5159285325
 C         -4.7078555306       -2.5532343461       -1.3891686730
 C         -4.2212297509       -2.2443644770       -0.1296839226
 H         -4.7292989315       -2.5379818570        0.7748487770
 H         -5.6306488209       -3.1019007254       -1.4880520636
 H         -4.3855157395       -2.3869176954       -3.4976727627
 H         -2.2683019786       -1.1272460272       -3.2601098212
 H         -1.4001550392       -0.5890806788       -1.0146694606
 H         -4.0233707997        0.4939917620        1.8400389787
 H         -4.3973890077        1.8874771131       -0.0536736309
 H         -3.4234427858        3.5128210030       -1.6365690497
 H         -1.0064734654        3.9368154711       -1.6543271884
 C          0.9110161629        2.7992567289       -0.0073690681
 H          1.1551701730        3.4386779784        0.8540801523
 C          1.4556279140        3.4441693291       -1.2660683275
 C          1.5331718252        4.9361506291       -1.3825617668
 C          2.7851099845        4.1322422780       -1.2055465166
 H          3.4583456648        4.0296912679       -2.0433156564
 H          3.2829768241        4.1593879572       -0.2468221364
 H          1.3505925660        5.3890975896       -2.3453761767
 H          1.1880558653        5.5224275590       -0.5443350867
 H          1.2299027140        2.8693351696       -2.1569127579
 O          0.5357592218        0.4351262199       -1.5775310993
