  62
        -98.94113033
 C         -2.1056780006       -0.7743278158       -0.3900178946
 C         -3.1459869807       -0.7118241870        0.5747764327
 C         -3.7071523134        0.6161439995        0.8494229108
 C         -3.1923479099        1.6870801063        0.2189047497
 C         -3.6882251571        3.0952088920        0.3707664697
 C         -4.7653473011        3.4213057653       -0.6733059789
 C         -5.8730382576        2.3717965508       -0.7646949654
 H         -5.4487592994        1.4384647500       -1.1416401518
 H         -6.5920823213        2.7218665041       -1.5083644723
 C         -6.5991332645        2.0985027169        0.5598711290
 H         -7.6740467790        2.0678807813        0.3700565903
 H         -6.4167676479        2.9160684054        1.2581906765
 C         -6.2270143595        0.7721022035        1.2253084009
 H         -6.3181079051       -0.0399672306        0.4996626258
 H         -6.9472302384        0.5790560255        2.0247391904
 C         -4.8265766625        0.7064605788        1.8481497397
 H         -4.7696140750       -0.2086190518        2.4448543151
 H         -4.6790030711        1.5590288231        2.5144559841
 H         -4.2859538799        3.4998025205       -1.6517563499
 H         -5.1997638350        4.3921919619       -0.4285018748
 H         -2.8434544283        3.7728013234        0.2350700588
 H         -4.0875388805        3.2265153734        1.3746452849
 O         -2.1789406988        1.5956671862       -0.6765387657
 C         -1.6127422954        0.3739684945       -1.0100296235
 O         -0.7053159129        0.4695539600       -1.8611672098
 O         -3.5885214600       -1.7273592373        1.1751917911
 C         -1.5160051763       -2.1482379490       -0.6724788436
 C         -0.2102509568       -2.2874864621        0.0729531733
 C         -0.1367146295       -3.0382156630        1.2408327426
 C          1.0423899108       -3.1067689038        1.9624295231
 C          2.1692808931       -2.4236783680        1.5404596000
 C          2.1018780463       -1.6660537783        0.3788968114
 C          0.9256966428       -1.6143066414       -0.3534008533
 H          0.8760588684       -1.0021400219       -1.2412505364
 N          3.2374620290       -0.9374427990       -0.0528005004
 S          3.7218674200        0.2668249696        1.0345498162
 O          4.3462085483       -0.3714636148        2.1658615738
 O          2.6116965466        1.1453342854        1.3389470346
 C          4.9471549500        1.1263464251        0.0681366647
 C          4.5401176823        2.1539226759       -0.7614460821
 C          5.4867744862        2.8021778731       -1.5389274226
 C          6.8159704414        2.4110981493       -1.4763588256
 C          7.2084850022        1.3771812632       -0.6395922700
 C          6.2670543417        0.7251486996        0.1409614912
 H          6.5244037342       -0.0784366106        0.8107405979
 H          8.2429710996        1.0776312345       -0.5931317312
 H          7.5497023109        2.9180836706       -2.0828647716
 H          5.1832811771        3.6069740802       -2.1891461785
 H          3.4973465227        2.4315008980       -0.7726807585
 H          3.0441617235       -0.4909461897       -0.9418628926
 H          3.0855660504       -2.4444811953        2.1074571865
 H          1.0829727097       -3.6922913577        2.8686449011
 H         -1.0208963874       -3.5495740073        1.5937224318
 H         -2.2278960473       -2.8608517662       -0.2351161873
 C         -1.3748679336       -2.4538197008       -2.1496903035
 C         -1.1988938083       -3.8782453975       -2.5803202653
 C         -2.4863280069       -3.1642947499       -2.8599294471
 H         -2.7107212591       -2.8804816045       -3.8771822961
 H         -3.3569037592       -3.4360918653       -2.2809445972
 H         -0.5367522509       -4.0882366406       -3.4060241793
 H         -1.1955283665       -4.6344189150       -1.8099588346
 H         -0.8448814812       -1.6900917443       -2.7032536136
