  62
        -98.93628990
 C          1.8330973394        1.1942421296       -0.0716325605
 C          3.0036496893        1.1281740995        0.7246598896
 C          4.1876342293        0.4629277694        0.1483119197
 C          4.1013889394       -0.0369471606       -1.0980040703
 C          5.1495006994       -0.7762567307       -1.8869709203
 C          5.3321664192       -2.2280278707       -1.4182103003
 C          5.4028789590       -2.4083156707        0.0957126497
 H          5.4375636989       -3.4817031307        0.3005049297
 H          4.4860279990       -2.0234654207        0.5461671197
 C          6.6109441490       -1.7641530009        0.7718946199
 H          7.5254941890       -2.1664618909        0.3305762099
 H          6.5905289089       -2.0637890809        1.8228513299
 C          6.6738101292       -0.2357195709        0.7174280999
 H          7.0249374093        0.1105931791       -0.2510274201
 H          7.4202315891        0.0848070091        1.4500279500
 C          5.3711538592        0.4672552893        1.0853163998
 H          5.5871728393        1.5248758992        1.2787332598
 H          5.0053275591        0.0711264793        2.0395850497
 H          6.2382386592       -2.6269034908       -1.8776274102
 H          4.4836107692       -2.8116639806       -1.7840150304
 H          6.0922969894       -0.2384446808       -1.8528263502
 H          4.8098812995       -0.7867165706       -2.9251593703
 O          2.9550470894        0.0454717595       -1.8292566605
 C          1.8000701095        0.6444884496       -1.3529526506
 O          0.8520132895        0.6079800397       -2.1603159107
 O          3.0649964792        1.6149435895        1.8861492996
 C          0.6360644294        1.9043666497        0.5359123393
 C         -0.3365892108        0.9378746898        1.1605654992
 C         -0.8022317009        1.1322968598        2.4556194092
 C         -1.7154975510        0.2558556999        3.0165519391
 C         -2.1858545110       -0.8279780401        2.2972307990
 C         -1.7265585109       -1.0307809201        1.0019090691
 C         -0.8085808408       -0.1531895002        0.4431645692
 H         -0.4579203107       -0.3153345702       -0.5655370208
 N         -2.2057898310       -2.1255800200        0.2529805290
 S         -3.8638719309       -2.2036237299        0.0165238688
 O         -4.4985074811       -2.5605880998        1.2602598188
 O         -4.0552478209       -3.1195015998       -1.0843408912
 C         -4.3320455007       -0.5504075898       -0.4576043812
 C         -4.2058232206       -0.1893536098       -1.7843735112
 C         -4.5004027104        1.1122430602       -2.1561342412
 C         -4.8993332604        2.0298689802       -1.1962847412
 C         -5.0181135806        1.6523201002        0.1321256588
 C         -4.7336676608        0.3495645002        0.5092691588
 H         -4.8219145309        0.0153606302        1.5296372188
 H         -5.3274991606        2.3685972602        0.8758213888
 H         -5.1163577503        3.0454879603       -1.4861220212
 H         -4.4080561203        1.4072661802       -3.1889392011
 H         -3.8912477306       -0.9321215798       -2.5001500711
 H         -1.7342274409       -2.2259902201       -0.6350885709
 H         -2.9018718011       -1.5178060900        2.7139576690
 H         -2.0641000811        0.4170200099        4.0251756091
 H         -0.4336302908        1.9709331598        3.0278077792
 H          1.0628402694        2.5115987996        1.3496384494
 C         -0.0375851704        2.8658292298       -0.4352326507
 C         -1.3636568904        2.6106712399       -1.0791077608
 C         -1.2438174004        3.6489236399       -0.0070737608
 H         -1.3077462903        4.6906859599       -0.2811697808
 H         -1.6673815805        3.4156058599        0.9579593891
 H         -1.4884573903        2.9264961199       -2.1032507708
 H         -1.8808659705        1.6937995500       -0.8455694809
 H          0.6933731297        3.3915234097       -1.0421714506
