  62
        -98.94290413
 C         -2.6542267191       -1.1771325980        0.2543687825
 C         -2.7695168437       -0.3254704875       -0.8709156641
 C         -3.7599434516        0.7568455148       -0.7605855924
 C         -4.4992307545        0.8732287894        0.3566089117
 C         -5.4924908329        1.9659151165        0.6225999317
 C         -4.8311609009        3.1522893734        1.3382134968
 C         -3.5337851425        3.6249158727        0.6819105414
 H         -2.7795696433        2.8399311415        0.7755865234
 H         -3.1751504090        4.4838897824        1.2530630472
 C         -3.6756850149        4.0170794458       -0.7955149948
 H         -3.1434232186        4.9560724325       -0.9613271443
 H         -4.7253033473        4.1937400189       -1.0330859294
 C         -3.0985302318        2.9988732008       -1.7807612613
 H         -2.0743612925        2.7492072498       -1.4912285674
 H         -3.0542962331        3.4677343716       -2.7675538649
 C         -3.8894716007        1.6929413046       -1.9295914296
 H         -3.4845421862        1.1554992657       -2.7921385012
 H         -4.9389180673        1.9184779998       -2.1287236991
 H         -4.6061150772        2.8548632327        2.3649816035
 H         -5.5456665547        3.9767234498        1.3718241384
 H         -6.2834327591        1.5643900459        1.2582193059
 H         -5.9278911490        2.2926563330       -0.3196587321
 O         -4.3840009483        0.0209211700        1.4055817319
 C         -3.4615205661       -1.0087626272        1.3855616745
 O         -3.4577361307       -1.7074011749        2.4185162961
 O         -2.0905059673       -0.4361711398       -1.9282624167
 C         -1.6740636893       -2.3386580330        0.3305133431
 C         -0.2742767641       -1.8620977505        0.6402974650
 C          0.3636635493       -2.2454434144        1.8143276777
 C          1.6495881497       -1.8146317278        2.0897390080
 C          2.3225357425       -0.9894408742        1.2064406591
 C          1.6941555394       -0.6003622883        0.0307170887
 C          0.4083006526       -1.0428801378       -0.2474634858
 H         -0.0782115168       -0.7333308899       -1.1606325720
 N          2.3503344163        0.2623240737       -0.8622980007
 S          3.9412257556       -0.0549314864       -1.2847951550
 O          4.1287747430        0.5862267821       -2.5677827865
 O          4.2364617377       -1.4677318287       -1.2233391695
 C          4.8883599345        0.8207421132       -0.0569246527
 C          4.6429447155        2.1691666978        0.1132177075
 C          5.3758121491        2.8687551054        1.0584220842
 C          6.3381504334        2.2126196946        1.8116128987
 C          6.5751894446        0.8592702132        1.6264528487
 C          5.8450222211        0.1535881591        0.6826301780
 H          5.9917839030       -0.9003853133        0.5074625728
 H          7.3241708498        0.3512681925        2.2124454720
 H          6.9065864341        2.7596715315        2.5471102075
 H          5.1942720364        3.9213840879        1.2048297447
 H          3.8889929508        2.6421542148       -0.4938220088
 H          1.7965072338        0.4982439748       -1.6731685069
 H          3.3229188759       -0.6487861841        1.4178312971
 H          2.1326938094       -2.1211126298        3.0049862118
 H         -0.1605515933       -2.8770736577        2.5168316725
 H         -2.0119402602       -2.9513781890        1.1768214848
 C         -1.6857294611       -3.2037945722       -0.9156096856
 C         -1.2158933044       -4.6225795663       -0.8189149248
 C         -2.6717188772       -4.3263797124       -1.0177251264
 H         -3.1168874942       -4.5350395517       -1.9789599057
 H         -3.3419297421       -4.4792919796       -0.1840851622
 H         -0.6565163284       -5.0370102579       -1.6436968373
 H         -0.8996724637       -4.9799977778        0.1494285727
 H         -1.4595728844       -2.6590093647       -1.8226441631
