  62
        -98.94513655
 C         -2.2747629613       -0.7227076014       -0.0173129066
 C         -3.2793386042       -0.6803127795        0.9823778610
 C         -4.1702131842        0.4862273459        0.9558961724
 C         -3.9650636855        1.4477755225        0.0373270983
 C         -4.8243718264        2.6660639666       -0.1345865028
 C         -5.9561163515        2.4107732066       -1.1401123967
 C         -6.7380647726        1.1236589136       -0.8773798440
 H         -7.5284154160        1.0648396491       -1.6288071522
 H         -6.0785325105        0.2675833086       -1.0369988003
 C         -7.3570838137        1.0314287011        0.5242933793
 H         -8.3837942521        0.6715446153        0.4304040286
 H         -7.4015814831        2.0232344896        0.9755415887
 C         -6.6348467052        0.0744195951        1.4743857911
 H         -7.2713653629       -0.0803696550        2.3495530359
 H         -6.5053125150       -0.8956863442        0.9881484919
 C         -5.2663330811        0.5453936543        1.9825697385
 H         -5.3533988785        1.5525520398        2.3951354355
 H         -4.9596082569       -0.1300589033        2.7864470919
 H         -5.5220694414        2.3497644463       -2.1408624386
 H         -6.6366554043        3.2638462709       -1.1167705919
 H         -5.2389783235        2.9507799648        0.8305271745
 H         -4.1972026697        3.4790679832       -0.5045124159
 O         -2.9667363619        1.3932443761       -0.8802837613
 C         -2.1026754863        0.3087971798       -0.9403192914
 O         -1.2523906220        0.3904897217       -1.8483282376
 H          0.8088191869       -1.2345531239       -1.6088612282
 C          1.0133543105       -1.1256849237       -0.5556793243
 C          0.0376758229       -1.4486159904        0.3736532673
 C          0.3170369779       -1.2643366613        1.7253201457
 C          1.5441110227       -0.7761114519        2.1316503511
 C          2.5157873215       -0.4523818434        1.1999807960
 C          2.2395535982       -0.6137772598       -0.1503205034
 N          3.2139709555       -0.2804568284       -1.1060392098
 S          4.0484364978        1.1650822551       -0.9339793267
 O          3.2673827001        2.1632491769       -0.2404645334
 O          4.4920950546        1.5058063634       -2.2684039336
 C          5.4679600001        0.7102308039        0.0431164277
 C          6.2413854245       -0.3504856736       -0.3865484552
 C          7.3532283251       -0.7127082040        0.3568167729
 C          7.6739284811       -0.0101840771        1.5089032851
 C          6.8902324181        1.0550637080        1.9248345706
 C          5.7757041813        1.4215894854        1.1862148334
 H          5.1338957759        2.2391301627        1.4744574197
 H          7.1410054946        1.6008669675        2.8202219081
 H          8.5396708326       -0.2942522694        2.0860292490
 H          7.9648107341       -1.5407543399        0.0365596222
 H          5.9599092776       -0.8682288863       -1.2881149751
 H          2.8968490528       -0.3964239337       -2.0580431730
 H          3.4707575799       -0.0600980472        1.5088866742
 H          1.7480819665       -0.6429393138        3.1832438230
 H         -0.4488634783       -1.4976520767        2.4518360669
 C         -1.3361511753       -1.9185606573       -0.0344834596
 H         -1.7118144777       -2.5913256315        0.7482072493
 C         -1.3684140336       -2.6485395969       -1.3606389007
 C         -0.7859581221       -4.0263712192       -1.4525876454
 C         -2.2703085192       -3.8339609774       -1.5214898642
 H         -2.7668801335       -3.9773595137       -2.4695438117
 H         -2.8647462098       -4.1283773606       -0.6690716964
 H         -0.2612403018       -4.3059564728       -2.3533058080
 H         -0.3708069790       -4.4502434414       -0.5509247378
 H         -1.2603768742       -1.9923354079       -2.2159111505
 O         -3.4245148411       -1.5789252575        1.8531191065
