  62
        -98.93278516
 C         -2.6278146457       -0.0472037299       -0.1643487830
 C         -1.9956475371       -0.8173569494        0.8405175309
 C         -1.3898976358       -2.0948319881        0.4110412408
 C         -1.5417638951       -2.5051758361       -0.8592190880
 C         -0.9912182393       -3.7313256729       -1.5443943749
 C         -0.9572034952       -5.0425099612       -0.7463329398
 C          0.4496400998       -5.4542586382       -0.3073029710
 H          0.4667252107       -6.5365751447       -0.1610923664
 H          1.1453612389       -5.2219724493       -1.1161872939
 C          0.9482397726       -4.8071532637        0.9837760566
 H          2.0030372091       -5.0665819869        1.0997401394
 H          0.4119245678       -5.2341647894        1.8339851487
 C          0.8080410322       -3.2853972000        1.0461175475
 H          1.5178211493       -2.9022106954        1.7833625967
 H          1.0779742886       -2.8256601355        0.0942976043
 C         -0.5945548728       -2.8165644396        1.4632215916
 H         -1.1767491102       -3.6575965898        1.8503192539
 H         -0.5052633614       -2.0997077404        2.2854097604
 H         -1.3483003673       -5.8300107996       -1.3928058531
 H         -1.6204883729       -4.9713581845        0.1135894319
 H         -1.6132086889       -3.8561118481       -2.4343871263
 H          0.0134148461       -3.4862650399       -1.9012075328
 O         -2.2512115035       -1.7784511662       -1.7707374714
 C         -2.7427184035       -0.5242336902       -1.4712356097
 O         -3.2832742291        0.0564435499       -2.4362261430
 H         -0.5013945329        1.1541570279        0.8127837293
 C         -0.6666586374        2.0174063363        0.1876781975
 C         -1.9395498252        2.3156836572       -0.2743148092
 C         -2.1134572228        3.4524138845       -1.0550106332
 C         -1.0325665434        4.2513662919       -1.3840993183
 C          0.2444105293        3.9146736949       -0.9723861438
 C          0.4264963391        2.7847477715       -0.1829041397
 N          1.7022067750        2.3888346758        0.2491626272
 S          2.0096282568        0.7231327453        0.3231256295
 O          1.3678043174        0.0487052050       -0.7828712527
 O          1.6986467107        0.2559623796        1.6486972652
 C          3.7805014506        0.7178408078        0.0988540043
 C          4.5927213065        0.9424112014        1.1944936057
 C          5.9665917587        0.9738949624        1.0150902822
 C          6.5029639172        0.7821122261       -0.2496090292
 C          5.6757379097        0.5556207694       -1.3394034856
 C          4.3007176253        0.5243538969       -1.1668027159
 H          3.6182031982        0.3434712790       -1.9819865276
 H          6.0948549399        0.4032233373       -2.3209208042
 H          7.5724407944        0.8062326829       -0.3866573760
 H          6.6126034223        1.1465613708        1.8606248094
 H          4.1294641143        1.0761355273        2.1581428342
 H          2.4502189764        2.8901021637       -0.2106294827
 H          1.0928091250        4.5161066907       -1.2614365838
 H         -1.1815340796        5.1302778165       -1.9927372729
 H         -3.0987402082        3.6941177955       -1.4247608114
 C         -3.0946683102        1.3867133309        0.0303051155
 H         -3.8689737795        1.5607428713       -0.7306035583
 C         -3.6848859015        1.6925259483        1.3914569925
 C         -4.6795979376        2.8053587037        1.5229597518
 C         -5.1261974155        1.3809134372        1.6541657022
 H         -5.3998598498        1.0074566095        2.6291414794
 H         -5.6964343694        0.9479636468        0.8449607919
 H         -4.6479584069        3.4179528012        2.4106657868
 H         -4.9578046264        3.3402866440        0.6277450459
 H         -2.9872147650        1.5391009774        2.2040180597
 O         -1.9112796568       -0.4726405941        2.0502358323
