  62
        -98.94892829
 C          2.2363437576        0.8479274374        0.0786215446
 C          1.5876980362        0.1145600268       -0.9436645940
 C          1.9834192418       -1.2936243896       -1.0754572664
 C          2.8833727643       -1.8070659569       -0.2177882002
 C          3.3833709735       -3.2223752006       -0.2401360239
 C          2.5515638742       -4.1413180586        0.6634735458
 C          1.0427212516       -4.0326608640        0.4425507841
 H          0.5653338605       -4.7687747423        1.0942504566
 H          0.6936512067       -3.0504985535        0.7702564213
 C          0.5902672874       -4.2641856102       -1.0058251548
 H         -0.2910582410       -4.9090582984       -0.9938792585
 H          1.3696281622       -4.7869068535       -1.5627212928
 C          0.1958486629       -2.9848985894       -1.7465664569
 H         -0.3621331150       -3.2655984171       -2.6441626429
 H         -0.4713307911       -2.3990790789       -1.1091312355
 C          1.3584135529       -2.0863159427       -2.1885649376
 H          2.1117299491       -2.6856521793       -2.7053149614
 H          0.9614705371       -1.3497689092       -2.8933963340
 H          2.7626216733       -3.8888855012        1.7054251597
 H          2.8720706779       -5.1712379615        0.4923203306
 H          3.3601302993       -3.5890836166       -1.2647795674
 H          4.4166615645       -3.2229241324        0.1126918254
 O          3.4388310146       -1.0875459374        0.7923245307
 C          3.1195835397        0.2480346085        0.9732724850
 O          3.6812108388        0.7854985355        1.9519785883
 H          0.3683133132        0.9525149272        1.9082733346
 C         -0.2147703551        1.6551401726        1.3243843865
 C          0.4324176199        2.4912993429        0.4225623804
 C         -0.3325151107        3.3896584599       -0.3098144089
 C         -1.7106314122        3.4130383231       -0.1770996168
 C         -2.3543790667        2.5301702009        0.6711333639
 C         -1.5937582804        1.6511635461        1.4293750697
 N         -2.2647263685        0.6772197594        2.2301992592
 S         -2.2737613471       -0.8062252457        1.4146183830
 O         -3.0154840907       -1.7165889485        2.2622530667
 O         -0.9309624709       -1.2324454194        1.0843667866
 C         -3.2070756201       -0.4212956622       -0.0460985628
 C         -2.5544718318       -0.0016604698       -1.1882952242
 C         -3.3139326799        0.3435189934       -2.2960337556
 C         -4.6969684437        0.2680387232       -2.2418964854
 C         -5.3351507519       -0.1536665891       -1.0846674251
 C         -4.5846172128       -0.4994725430        0.0268486322
 H         -5.0311916774       -0.8346281359        0.9485628612
 H         -6.4110362217       -0.2107185223       -1.0450682650
 H         -5.2803945667        0.5405616070       -3.1072967583
 H         -2.8123876778        0.6752800613       -3.1908469356
 H         -1.4763947048        0.0592034448       -1.2053669561
 H         -1.8104368786        0.5307900437        3.1228662981
 H         -3.4288493513        2.5068103257        0.7519532575
 H         -2.2913141592        4.1093878882       -0.7618115416
 H          0.1505957330        4.0586342868       -1.0030096785
 C          1.9227600751        2.3240413784        0.2647652759
 H          2.4131190695        2.6262295199        1.2016917066
 C          2.5060388013        3.1282333550       -0.8783598060
 C          2.8964313738        4.5603144780       -0.6721896329
 C          3.9537662767        3.5102199081       -0.8297821915
 H          4.5251391628        3.4833151415       -1.7453914434
 H          4.5155651305        3.2092387671        0.0428000565
 H          2.7463377144        5.2580717064       -1.4819556743
 H          2.7464187648        4.9831017790        0.3096684362
 H          2.0978252800        2.8392163213       -1.8399802018
 O          0.7364080921        0.6175415204       -1.7224830408
