  62
        -98.94355578
 C         -0.9371557300       -1.6294987040       -0.3622648478
 C         -1.2111714702       -0.2606581137       -0.6091444718
 C         -2.3411547670        0.3054297530        0.1437072817
 C         -2.9733342873       -0.4316416417        1.0721918895
 C         -4.1038296991        0.0273786016        1.9531824831
 C         -5.4883880447       -0.0681051897        1.2975046757
 C         -5.7651164823        0.9695873441        0.2089597939
 H         -6.8341992746        0.9275478857       -0.0086908726
 H         -5.5504716891        1.9656412493        0.5973375554
 C         -4.9856611756        0.7428110771       -1.0937898454
 H         -5.6613959203        0.8504080227       -1.9452006039
 H         -4.6036894260       -0.2804224498       -1.1146636811
 C         -3.8220803057        1.7097446364       -1.3125384869
 H         -3.3216129304        1.4377243834       -2.2450234507
 H         -4.2073377151        2.7260464979       -1.4194370763
 C         -2.7720426243        1.7008907453       -0.1933279416
 H         -1.8890145795        2.2378793411       -0.5461976883
 H         -3.1589773973        2.2038235442        0.6931999207
 H         -5.6092617656       -1.0722549534        0.8844407387
 H         -6.2319319088        0.0575352336        2.0880459416
 H         -3.9206277392        1.0525040357        2.2773928748
 H         -4.0924718122       -0.6198401951        2.8331081465
 O         -2.6279344098       -1.7202726685        1.3385323803
 C         -1.6266236144       -2.3480726218        0.6169998463
 O         -1.4446086528       -3.5427912404        0.9330676645
 O         -0.5682638360        0.4668107608       -1.4067322081
 C          0.1656830607       -2.4034928886       -1.0687672997
 C          1.4479932374       -2.2937714416       -0.2854524599
 C          2.2094703981       -3.4137494429        0.0252834235
 C          3.3664500309       -3.2878805936        0.7745010644
 C          3.7764614356       -2.0501560595        1.2367959494
 C          3.0209503220       -0.9240280457        0.9286524078
 C          1.8760598790       -1.0506961417        0.1580588161
 H          1.2935793569       -0.1749542889       -0.0757911212
 N          3.4095400313        0.3518027720        1.3585274127
 S          2.2586192723        1.5266772926        1.6665143595
 O          2.9501558882        2.4878502756        2.5035563484
 O          1.0535701502        0.9658119523        2.2360827981
 C          1.9258685362        2.2910079798        0.0942147214
 C          2.7988946000        2.1379583002       -0.9628987788
 C          2.5178725461        2.7798035819       -2.1581698215
 C          1.3837136818        3.5671240238       -2.2726248325
 C          0.5225337114        3.7185243337       -1.1981396391
 C          0.7936322485        3.0735237401       -0.0028375676
 H          0.1416891952        3.1477913067        0.8540082249
 H         -0.3624547094        4.3285358694       -1.2894698763
 H          1.1647185471        4.0612216080       -3.2061180360
 H          3.1829517058        2.6579764669       -2.9981562189
 H          3.6696698975        1.5137509590       -0.8473774126
 H          4.1769335143        0.3819351945        2.0130663725
 H          4.6687555015       -1.9541643863        1.8362975842
 H          3.9486278006       -4.1647897490        1.0138653190
 H          1.8784856961       -4.3875557453       -0.3046231973
 H         -0.1507212499       -3.4588005749       -1.0373566445
 C          0.3278363994       -2.0213569474       -2.5331566530
 C          1.4658910182       -1.2015340277       -3.0536762023
 C          1.4012483964       -2.6657481121       -3.3601985932
 H          1.1617628672       -2.9772134044       -4.3656267428
 H          2.0980869715       -3.3136160371       -2.8499735134
 H          1.2488464985       -0.4919842742       -3.8368414926
 H          2.2075564598       -0.8565023713       -2.3510285727
 H         -0.6325106163       -1.8689224415       -3.0150342396
