  62
        -98.93754041
 C         -1.6963683667       -1.4043473653        0.4254683881
 C         -1.3556576009       -0.3267071182       -0.4266366128
 C         -2.0649591128        0.9460608677       -0.1990201322
 C         -2.9248589873        1.0532864652        0.8290656439
 C         -3.7364217363        2.2275412372        1.3356561235
 C         -3.9354376970        3.4709471573        0.4727512671
 C         -4.7785273880        3.2515409601       -0.7827267780
 H         -5.8085384419        3.0492940837       -0.4785207255
 H         -4.7774224645        4.1791622436       -1.3591310722
 C         -4.3288142834        2.1051709457       -1.6847175399
 H         -4.4312355902        1.1578980165       -1.1513272404
 H         -5.0075809101        2.0680094040       -2.5409323764
 C         -2.9045310096        2.2199016663       -2.2246109549
 H         -2.7741969590        3.1864458684       -2.7146508057
 H         -2.7770915646        1.4409731614       -2.9808609984
 C         -1.7832562276        2.0424983610       -1.1849508873
 H         -1.5659184539        2.9723650240       -0.6639394196
 H         -0.8712935485        1.7517575214       -1.7142179682
 H         -2.9738166085        3.9062046427        0.2165174450
 H         -4.4566041097        4.2014007817        1.0978396667
 H         -4.7154327352        1.8185108496        1.6064860351
 H         -3.2582487880        2.5311666615        2.2741429896
 O         -3.1609830644        0.0083377692        1.6780300417
 C         -2.5568129427       -1.2235668717        1.5075651818
 O         -2.8582321012       -2.0653961604        2.3799204811
 O         -0.5003845321       -0.4073711699       -1.3450800820
 C         -1.0240967540       -2.7639548615        0.3058661661
 C          0.4605987132       -2.5476224394        0.1531999686
 C          1.2179591105       -3.0108603484       -0.9140257690
 C          2.5599650271       -2.6855753051       -1.0170135227
 C          3.1662841081       -1.8742636968       -0.0749295528
 C          2.4187018568       -1.4203921611        1.0030441657
 C          1.0897284104       -1.7805254899        1.1271127420
 H          0.5099683350       -1.4059048863        1.9632834563
 N          3.0186850131       -0.5044842612        1.9188304489
 S          2.5798129921        1.0803305911        1.5175320007
 O          3.2558775403        1.9264403362        2.4798729314
 O          1.1404794993        1.2360085253        1.4698431074
 C          3.3050133034        1.2745818089       -0.0917241670
 C          2.5663827063        0.9599441054       -1.2151279446
 C          3.1728596354        1.0662768891       -2.4577271101
 C          4.4931286510        1.4779531477       -2.5537896019
 C          5.2195102181        1.7888786592       -1.4136922893
 C          4.6225137313        1.6836669060       -0.1681561305
 H          5.1427854001        1.9142721480        0.7469374563
 H          6.2463031767        2.1081793466       -1.4914632089
 H          4.9583323099        1.5556945137       -3.5238860009
 H          2.6062757217        0.8181552336       -3.3408313620
 H          1.5432689978        0.6309765937       -1.1102107857
 H          2.7259309878       -0.6663484081        2.8742921700
 H          4.1995575638       -1.5808691560       -0.1642877414
 H          3.1331033639       -3.0458469934       -1.8571119454
 H          0.7477201560       -3.5978960481       -1.6857769258
 H         -1.1988464688       -3.2515569692        1.2797711649
 C         -1.6238812502       -3.6759266983       -0.7527415793
 C         -3.0670494731       -3.5545764325       -1.1396512905
 C         -1.9952836840       -3.1842701878       -2.1180305141
 H         -1.8261478908       -3.8387310082       -2.9605005922
 H         -1.8316271029       -2.1408208256       -2.3335452724
 H         -3.6312247068       -4.4598314538       -1.3068875071
 H         -3.6408489919       -2.7616552256       -0.6813077295
 H         -1.2299272954       -4.6853882094       -0.6862352853
