  62
        -98.94095415
 C         -1.7207277293       -0.1500354541       -0.6472694945
 C         -2.9076574785        0.2681818594       -1.3027507134
 C         -4.1699487189       -0.1699132927       -0.6973784998
 C         -4.1468988025       -0.9793169240        0.3763442878
 C         -5.3480152831       -1.5237269920        1.1008183020
 C         -5.9349500384       -0.5606718967        2.1420595860
 C         -6.6849264119        0.6417038103        1.5669370586
 H         -7.4271150770        0.2947149032        0.8473544835
 H         -7.2253375146        1.1067926196        2.3938172737
 C         -5.7831927807        1.6972143213        0.9115405638
 H         -4.7511107362        1.5461967347        1.2371049414
 H         -6.0817150970        2.6920220831        1.2498521548
 C         -5.8254757733        1.7063911055       -0.6167354243
 H         -5.1250244028        2.4654927320       -0.9745465481
 H         -6.8258402263        1.9867894814       -0.9534979129
 C         -5.4477153578        0.3686222263       -1.2664176808
 H         -6.2548172065       -0.3525364649       -1.1402932241
 H         -5.2907337622        0.5374508404       -2.3345026248
 H         -6.6299740792       -1.1336634034        2.7602584462
 H         -5.1267165042       -0.2112043586        2.7890104218
 H         -6.1192517154       -1.7967939084        0.3800091129
 H         -5.0167162367       -2.4280746528        1.6158649887
 O         -2.9880891384       -1.4258548530        0.9279154980
 C         -1.7479031660       -1.0126806557        0.4495888447
 O         -0.7865962028       -1.4949120842        1.0767459748
 O         -2.9106197769        0.9716725169       -2.3471806419
 C         -0.4005238851        0.3383788310       -1.2153351164
 C          0.5979119529       -0.7872193764       -1.2942989430
 C          0.3344962403       -1.8563947495       -2.1465688901
 C          1.2173465408       -2.9138214063       -2.2440337137
 C          2.3901907168       -2.9179383984       -1.5100848256
 C          2.6675440354       -1.8512818572       -0.6625341093
 C          1.7719544656       -0.7955624261       -0.5580711893
 H          1.9751444963       -0.0055651290        0.1439352103
 N          3.8774292786       -1.8103924587        0.0341029689
 S          4.2435593490       -0.7458865765        1.2557411411
 O          5.5713085035       -1.1496838500        1.6709985618
 O          3.2480300664       -0.7128513582        2.3006335590
 C          4.3341634612        0.8371059310        0.4432061147
 C          4.9062124624        0.9215883539       -0.8105444616
 C          4.9753307527        2.1582818227       -1.4320549679
 C          4.4785022426        3.2840231273       -0.7929930368
 C          3.9155177174        3.1845283129        0.4698846114
 C          3.8438104585        1.9503507698        1.0962049445
 H          3.4059240442        1.8228236637        2.0740170337
 H          3.5299820250        4.0605976155        0.9668842263
 H          4.5287582716        4.2445103383       -1.2811768226
 H          5.4130829584        2.2401492007       -2.4138666587
 H          5.2791921079        0.0274601474       -1.2811732513
 H          4.4298264666       -2.6527050198        0.0411462092
 H          3.0826457601       -3.7422040336       -1.5858338981
 H          0.9938549754       -3.7430603035       -2.8984362810
 H         -0.5828380865       -1.8537017283       -2.7196621451
 H         -0.6454616363        0.6444590662       -2.2465495517
 C          0.1490924418        1.5737721574       -0.5167338111
 C         -0.7717737589        2.5980874129        0.0734878377
 C          0.0778335631        1.7498473025        0.9690980044
 H          0.9159944772        2.2098784305        1.4711801633
 H         -0.3910730058        0.9666452992        1.5450786930
 H         -0.5187442445        3.6412703535       -0.0393716006
 H         -1.8329099515        2.3993145373        0.0359708887
 H          1.0402518102        1.9542755507       -1.0075892585
