  62
        -98.94453179
 C          1.2555467033        1.7783502924       -0.6846689803
 C          2.4429699765        1.6602348522        0.0839933648
 C          3.3853262172        0.6148700516       -0.3227587838
 C          3.1161257987       -0.1360517921       -1.4054897948
 C          3.9559744926       -1.2669424228       -1.9321430174
 C          3.6695016224       -2.6028681188       -1.2319415007
 C          4.2235810802       -2.7194372954        0.1887705870
 H          4.1620843236       -3.7727826798        0.4698262344
 H          5.2781337750       -2.4399601309        0.1932061387
 C          3.4620236262       -1.8892421936        1.2319858949
 H          2.4790755796       -1.6208923797        0.8347694402
 H          3.2821947116       -2.5002848062        2.1201860799
 C          4.1888108331       -0.6249644845        1.6939292949
 H          5.1001553318       -0.9038813275        2.2282791784
 H          3.5362109310       -0.0940088258        2.3920734438
 C          4.5617499688        0.3452764710        0.5651563288
 H          4.8648093637        1.2937902454        1.0155773591
 H          5.3953903996       -0.0513969184       -0.0137489013
 H          2.5876611733       -2.7612788358       -1.2091666470
 H          4.1118879158       -3.3955551464       -1.8403090088
 H          3.7127014197       -1.3726863608       -2.9916035196
 H          5.0141082551       -1.0209991439       -1.8388837803
 O          2.0124703120        0.0616330264       -2.1673372685
 C          1.0181575655        0.9613239945       -1.7904787763
 O          0.0224626405        0.9298393157       -2.5370090435
 H         -0.4435928041        0.1310907588        0.1220972330
 C         -0.7381100582        0.6943741500        0.9916977533
 C         -0.4809301412        2.0561128924        1.0407537563
 C         -0.8391630408        2.7598994874        2.1841740166
 C         -1.4415449217        2.1072156969        3.2460511214
 C         -1.6820473206        0.7458772978        3.1976869526
 C         -1.3111324027        0.0288723259        2.0640339272
 N         -1.4733109993       -1.3566900043        2.0077708493
 S         -1.4514173137       -2.2552358905        0.6052407572
 O         -1.7942384025       -3.5880093815        1.0552916457
 O         -0.1851881505       -2.1237130631       -0.0698148489
 C         -2.7990128952       -1.6193555603       -0.3739352377
 C         -2.5784153144       -0.8867189914       -1.5210760546
 C         -3.6735336594       -0.4137128768       -2.2298776136
 C         -4.9584117465       -0.6729834503       -1.7824142454
 C         -5.1632320997       -1.4123857285       -0.6263797467
 C         -4.0757465872       -1.8905794343        0.0837657176
 H         -4.1913325141       -2.4857199971        0.9749390854
 H         -6.1635287359       -1.6163330149       -0.2799490245
 H         -5.8034592155       -0.2987242070       -2.3383924187
 H         -3.5033107205        0.1597853892       -3.1268411634
 H         -1.5732300155       -0.6777158813       -1.8537691707
 H         -1.9938501390       -1.7843729878        2.7565414741
 H         -2.1304205692        0.2354748668        4.0358953767
 H         -1.7156012557        2.6631173181        4.1298001576
 H         -0.6190139559        3.8150399555        2.2508612843
 C          0.2080175755        2.7262188509       -0.1257468625
 H          0.7710320997        3.5833339757        0.2788296250
 C         -0.7709777558        3.2636928581       -1.1563691966
 C         -2.1725212690        2.7556715759       -1.2857460056
 C         -1.9243242385        4.1266705780       -0.7369065410
 H         -2.1728199417        4.9807152686       -1.3483393347
 H         -2.0832764917        4.2765591184        0.3195720196
 H         -2.5771001125        2.6548806569       -2.2803824431
 H         -2.4950164929        1.9805596012       -0.6070320986
 H         -0.2725296589        3.5344916126       -2.0808276935
 O          2.6919871829        2.3942321107        1.0785474446
