  62
        -98.93346782
 C          2.4150053710        1.0766688608        0.3098714704
 C          2.5652136010       -0.1594204593        0.9887791902
 C          3.8216606211       -0.8995926092        0.7788502901
 C          4.7602942211       -0.3803825490       -0.0342097898
 C          6.1482097011       -0.8627917488       -0.4020884698
 C          6.6035979412       -2.2742889789       -0.0432554201
 C          5.8993021913       -3.3862324488       -0.8206794003
 H          6.2389817114       -3.3508054786       -1.8587893603
 H          6.2073635114       -4.3467476188       -0.4023182304
 C          4.3742616513       -3.3163533689       -0.8355752003
 H          4.0525176613       -2.3918438188       -1.3194554402
 H          4.0066412914       -4.1441448588       -1.4481155805
 C          3.7009535713       -3.4187379092        0.5314640496
 H          2.6230172513       -3.5004039792        0.3639509396
 H          4.0299134513       -4.3290863692        1.0367629795
 C          3.9321672412       -2.2261023893        1.4743523699
 H          3.1443498511       -2.2392925395        2.2335264198
 H          4.8847794812       -2.3115381394        1.9919137599
 H          7.6690019712       -2.3288518387       -0.2825988600
 H          6.5131121212       -2.4370338591        1.0266313599
 H          6.2375594912       -0.7208285586       -1.4837777198
 H          6.8382384911       -0.1478205889        0.0592012803
 O          4.5722300610        0.8118187911       -0.6679224096
 C          3.4156513110        1.5621350810       -0.5305215295
 O          3.4296232409        2.6112826811       -1.2034067793
 O          1.6847591110       -0.6232336495        1.7647330901
 C          1.1266095809        1.8401802806        0.5587584105
 C          0.1076267110        1.6347685808       -0.5374295596
 C          0.3831065710        1.9646260810       -1.8602373395
 C         -0.5787578490        1.7871097111       -2.8377253896
 C         -1.8282092089        1.2868871710       -2.5174557697
 C         -2.1186908790        0.9661601907       -1.1959603598
 C         -1.1482981190        1.1378812806       -0.2184856397
 H         -1.3767205090        0.8648123004        0.8007141302
 N         -3.4028606389        0.5160859106       -0.8452761699
 S         -3.6111240289       -0.5670527097        0.4309711599
 O         -3.4293570690        0.1374540301        1.6748458600
 O         -2.7974853088       -1.7452153496        0.2274702597
 C         -5.3375637989       -0.9571797997        0.2146822198
 C         -6.2749600790       -0.0260085699        0.6210805099
 C         -7.6194948789       -0.3026839499        0.4328963598
 C         -8.0028949888       -1.4994916299       -0.1544802604
 C         -7.0512464987       -2.4253706397       -0.5542844505
 C         -5.7041918688       -2.1538886497       -0.3706612404
 H         -4.9296329187       -2.8462821495       -0.6591779205
 H         -7.3523531587       -3.3563168597       -1.0070466007
 H         -9.0501755988       -1.7129635799       -0.2989750305
 H         -8.3623102490        0.4135512600        0.7450091099
 H         -5.9300954690        0.8853537001        1.0808376101
 H         -3.9471210789        0.2345841107       -1.6497785700
 H         -2.5766847989        1.1513131411       -3.2834300897
 H         -0.3516635289        2.0400404613       -3.8625172495
 H          1.3569095810        2.3547464111       -2.1129117194
 H          0.7092392509        1.4037104305        1.4772431704
 C          1.3399567108        3.3246796406        0.7901887608
 C          0.2875960907        4.1002277504        1.5216057309
 C          1.6059640007        3.8211883004        2.1777975409
 H          2.3026601007        4.6355200704        2.3081722811
 H          1.6350766408        3.0896597402        2.9725964207
 H          0.0760897007        5.1086848205        1.2012019911
 H         -0.5785868592        3.5581959703        1.8717618908
 H          1.8568309908        3.8154536108       -0.0240297391
