  62
        -98.94701908
 C          1.5146995177        1.0800662904        0.0747635951
 C          2.5217634988        0.6130047673        0.9494297850
 C          3.0775506227       -0.7103115999        0.6412657952
 C          2.5757483601       -1.4090274441       -0.3940158444
 C          3.0724970664       -2.7530615905       -0.8405083733
 C          4.1729461270       -2.6177858058       -1.9022791917
 C          5.2812687355       -1.6371013306       -1.5190796692
 H          6.0166804790       -1.6457658224       -2.3262593528
 H          4.8636192976       -0.6288277212       -1.4736060630
 C          5.9780149901       -1.9561774749       -0.1890837790
 H          5.7814207395       -2.9910881775        0.0931313062
 H          7.0567553720       -1.8561037839       -0.3256121821
 C          5.5888816710       -1.0339812590        0.9677778281
 H          6.2904397490       -1.2036749640        1.7888739514
 H          5.6944946047        0.0083108106        0.6566680093
 C          4.1744584429       -1.2267564346        1.5299346123
 H          4.0118211072       -2.2800936162        1.7693796634
 H          4.1036818366       -0.6508424274        2.4577589828
 H          3.7151499162       -2.2727462542       -2.8321038772
 H          4.6025438601       -3.6052215926       -2.0804647673
 H          3.4486245719       -3.2993490296        0.0225611124
 H          2.2297601949       -3.3030040824       -1.2634711074
 O          1.5810487725       -0.9447106263       -1.1893186306
 C          1.0152570220        0.2986397383       -0.9682747008
 O          0.1002168491        0.5966557844       -1.7595618955
 H         -0.3077448560        0.6126278880        1.8454671488
 C         -1.0391252722        1.2184625865        1.3238259409
 C         -0.6076302587        2.2531629327        0.5021374910
 C         -1.5650204157        3.0180554324       -0.1511542689
 C         -2.9119329303        2.7238780625       -0.0205069688
 C         -3.3300111966        1.6500097065        0.7443147597
 C         -2.3805335189        0.8983421422        1.4224946548
 N         -2.8048323855       -0.2659307281        2.1316839874
 S         -2.5396319023       -1.6387751374        1.1768848216
 O         -3.0547467053       -2.7538554844        1.9446660396
 O         -1.1485713609       -1.7526435033        0.7892719444
 C         -3.5785480738       -1.3229841021       -0.2282249384
 C         -4.9109118978       -1.6798495511       -0.1467389367
 C         -5.7478920700       -1.3901985566       -1.2117242314
 C         -5.2405322227       -0.7457830762       -2.3304260787
 C         -3.9009431382       -0.3947941588       -2.3945377214
 C         -3.0548462178       -0.6831462437       -1.3342324707
 H         -2.0085390422       -0.4161709592       -1.3577324048
 H         -3.5014905024        0.1083165094       -3.2604439729
 H         -5.8920700421       -0.5152875332       -3.1585893014
 H         -6.7897584290       -1.6633440928       -1.1654998684
 H         -5.2548501439       -2.1804232204        0.7434117302
 H         -2.2983023534       -0.3966278853        2.9984817212
 H         -4.3711133324        1.3821388451        0.8207364029
 H         -3.6419254987        3.3221296835       -0.5431067037
 H         -1.2536555293        3.8347954945       -0.7816417966
 C          0.8790707157        2.4363848376        0.3305819727
 H          1.3060619063        2.7888364706        1.2814040193
 C          1.2483137649        3.4126333415       -0.7662851856
 C          1.3175164315        4.8822932541       -0.4796109889
 C          2.5769996837        4.1023350553       -0.7038906864
 H          3.1234157463        4.2529230855       -1.6227891812
 H          3.2066761615        3.8862585899        0.1469886112
 H          1.0018893081        5.5726587458       -1.2470043353
 H          1.0957789802        5.2063883345        0.5258309877
 H          0.8951894669        3.0935799704       -1.7406170128
 O          2.9296987387        1.2699055818        1.9478382551
