  62
        -98.94471249
 C         -1.8831566399       -0.0871312327       -0.7895814597
 C         -2.8847839600       -1.0805047719       -0.6745716944
 C         -4.2576241799       -0.5879874209       -0.5196967770
 C         -4.4949039497        0.7365085092       -0.5199636441
 C         -5.8428916896        1.3924377101       -0.3896061476
 C         -6.3194780596        1.5550360579        1.0604508016
 C         -6.7566595998        0.2624823816        1.7510623185
 H         -7.2664094597        0.5490242766        2.6731030769
 H         -7.4841419299       -0.2545431816        1.1245636612
 C         -5.6047757999       -0.6903899067        2.0998026035
 H         -5.7270953700       -1.0502252912        3.1238986555
 H         -4.6585964698       -0.1453724770        2.0630762906
 C         -5.5041389301       -1.9195093215        1.1963830801
 H         -6.3924091702       -2.5420243907        1.3241617734
 H         -4.6353310702       -2.5045145900        1.5084915032
 C         -5.3451912501       -1.5948220795       -0.2947881316
 H         -5.0624000002       -2.5118579723       -0.8173658868
 H         -6.2885962900       -1.2352510616       -0.7047214836
 H         -5.5212843295        2.0259650608        1.6390116391
 H         -7.1698346295        2.2407900879        1.0486512779
 H         -5.7491897695        2.3855212377       -0.8342551929
 H         -6.5829812097        0.8266105571       -0.9561698345
 O         -3.5060885296        1.6595433883       -0.6608751590
 C         -2.1770810797        1.2762149074       -0.7778797770
 O         -1.3755429195        2.2255387368       -0.8670096120
 O         -2.6415513602       -2.3167011721       -0.6958543678
 C         -0.4355802899       -0.5212424937       -0.9316476774
 C          0.3933187302        0.0635572322        0.1843384495
 C         -0.0606029698       -0.0676241308        1.4953234302
 C          0.6473461602        0.4758447447        2.5482140073
 C          1.8358821203        1.1482603133        2.3203277237
 C          2.3061057204        1.2722424363        1.0201144430
 C          1.5897785503        0.7259036708       -0.0378325341
 H          1.9759747903        0.8518723554       -1.0350025347
 N          3.5119231905        1.9439226747        0.7556851294
 S          4.6291702803        1.2183986092       -0.2560887067
 O          5.8893918504        1.8423842108        0.0834452800
 O          4.2156543503        1.3343545219       -1.6306045073
 C          4.6278898401       -0.4898213381        0.2562726824
 C          4.0241278799       -1.4456868822       -0.5337136825
 C          3.9689307697       -2.7533252598       -0.0774461755
 C          4.5129478697       -3.0791775433        1.1548999762
 C          5.1225563199       -2.1076907692        1.9344700910
 C          5.1787397000       -0.7989704216        1.4847557740
 H          5.6525083302       -0.0183583486        2.0576312899
 H          5.5487967898       -2.3659565442        2.8903387124
 H          4.4628819895       -4.0970146114        1.5082634816
 H          3.4979755396       -3.5111858729       -0.6831657815
 H          3.6131542000       -1.1513002972       -1.4851653341
 H          3.9628447605        2.3240749490        1.5752041074
 H          2.3878415204        1.5817760376        3.1403752714
 H          0.2748349302        0.3742648002        3.5563395278
 H         -0.9888688499       -0.5930381197        1.6742113430
 H         -0.4488665001       -1.6155357530       -0.8163774016
 C          0.0797311601       -0.1851136711       -2.3147615492
 C          1.1057862700       -1.0561545148       -2.9729945446
 C         -0.3086757200       -1.0597412872       -3.4678078445
 H         -0.5287611600       -0.5938783022       -4.4166331270
 H         -0.9233921302       -1.9211161959       -3.2507433099
 H          1.8665113800       -0.5878226881       -3.5803578871
 H          1.4431702599       -1.9242908219       -2.4271505199
 H          0.1227769303        0.8833419079       -2.4967704249
