  62
        -98.94796872
 C         -1.2283614190       -1.0967605672        0.0432790461
 C         -1.6069629447       -0.0230290873        0.8828286191
 C         -2.5815482020        0.9214515506        0.3234436731
 C         -3.0082675908        0.7516536912       -0.9412140695
 C         -4.0231076636        1.6195014387       -1.6262633549
 C         -5.4460960899        1.0790651794       -1.4272132932
 C         -5.7834643310        0.7505928797        0.0270662145
 H         -6.8197441394        0.4069116102        0.0506791847
 H         -5.1595664708       -0.0831996960        0.3566951729
 C         -5.6119851450        1.9264524090        0.9987762468
 H         -5.5842022507        2.8647400840        0.4435598295
 H         -6.4811748610        1.9653573002        1.6586820809
 C         -4.3760350195        1.8325093741        1.8950977085
 H         -4.3512607104        0.8544625434        2.3820236117
 H         -4.4671509672        2.5878579138        2.6801289920
 C         -3.0275246497        2.0583450298        1.1994177074
 H         -3.0538520727        2.9919282577        0.6327925978
 H         -2.2637530544        2.1543853935        1.9771929338
 H         -6.1519883028        1.8187979380       -1.8092577874
 H         -5.5548695699        0.1674253115       -2.0192465149
 H         -3.9476688274        2.6327738172       -1.2356702459
 H         -3.7936407142        1.6365785497       -2.6932828212
 O         -2.5909845435       -0.2677185683       -1.7342723967
 C         -1.6900456934       -1.2145488578       -1.2675052698
 O         -1.3877916443       -2.0899633957       -2.1008380542
 O         -1.1440185937        0.1414356715        2.0446731772
 C         -0.2174427696       -2.1049356378        0.5534508806
 C          1.0574314730       -2.0502571890       -0.2545207701
 C          1.8560427663       -3.1646879424       -0.4832158804
 C          3.0310458603       -3.0467749507       -1.2051737009
 C          3.4470416954       -1.8219061426       -1.6949702791
 C          2.6572974407       -0.7004964609       -1.4682393375
 C          1.4763813117       -0.8257836556       -0.7549245056
 H          0.8586289410        0.0470917034       -0.6142713911
 N          3.0313904865        0.5612295210       -1.9511611176
 S          2.6380338421        1.9443963431       -1.1019127339
 O          1.2321732039        2.2385374682       -1.2310610055
 O          3.5416912898        2.9459557054       -1.6278178839
 C          3.0658799788        1.5833801907        0.5917759005
 C          4.4088822588        1.4583909962        0.8938370339
 C          4.7802630937        1.1353868505        2.1880518049
 C          3.8063658710        0.9360788748        3.1555516222
 C          2.4642517694        1.0704510404        2.8385748715
 C          2.0870515980        1.3989156794        1.5456481785
 H          1.0470236528        1.5036139480        1.2789840719
 H          1.6967920085        0.9143365281        3.5800748938
 H          4.0935849138        0.6774944219        4.1625232341
 H          5.8241630266        1.0364715021        2.4382468870
 H          5.1358787659        1.6319611899        0.1172406342
 H          3.9506197242        0.6120583661       -2.3637737244
 H          4.3639997442       -1.7330436095       -2.2567053369
 H          3.6365011143       -3.9221609472       -1.3843175670
 H          1.5534978059       -4.1268097140       -0.1034985201
 H          0.0247999175       -1.7808247456        1.5778359669
 C         -0.8259860459       -3.4915254946        0.6135700080
 C         -0.4265640103       -4.4533268070        1.6915859983
 C         -1.7808297631       -3.8135572103        1.7230108019
 H         -2.6469382827       -4.4180955959        1.4993057568
 H         -1.9657547383       -3.0415040479        2.4558134638
 H         -0.3644229355       -5.5031913729        1.4475518333
 H          0.3037472390       -4.1217684028        2.4140946258
 H         -1.0515921097       -3.8867269757       -0.3704447686
