  62
        -98.94200743
 C          1.2557758349        1.1286375374        0.7206408941
 C          1.4177613744        0.4010512176       -0.4860111407
 C          2.2982700497       -0.7749933079       -0.3980692486
 C          2.7402785163       -1.1966420538        0.7987089056
 C          3.6180868325       -2.3917868609        1.0510851400
 C          5.1171436326       -2.0984883598        0.8988804024
 C          5.5954642419       -1.8911863055       -0.5389226676
 H          6.6870092883       -1.9059277381       -0.5179339444
 H          5.2715068112       -2.7316846751       -1.1535002859
 C          5.1323860001       -0.5741208434       -1.1778005024
 H          4.7986393335        0.1125274177       -0.3962234211
 H          5.9766927118       -0.0968270900       -1.6803380603
 C          4.0177956174       -0.7285536725       -2.2130017651
 H          3.7469182842        0.2671414078       -2.5739023111
 H          4.3880740272       -1.3034087830       -3.0647098921
 C          2.7477151617       -1.4069913366       -1.6807308571
 H          2.9279906202       -2.4728191491       -1.5445126473
 H          1.9527929000       -1.2703498514       -2.4166138166
 H          5.3629870393       -1.2164769440        1.4952024821
 H          5.6612340678       -2.9461581334        1.3219295466
 H          3.3367782546       -3.2059145359        0.3830660931
 H          3.4319093498       -2.7047039071        2.0806643844
 O          2.4077636912       -0.5692753976        1.9591377461
 C          1.7123192165        0.6282171102        1.9428518919
 O          1.5447931902        1.1340546417        3.0721097273
 O          0.8835585105        0.7049053932       -1.5802530548
 C          0.5016520263        2.4471239527        0.7750479313
 C         -0.8532601699        2.2828182707        0.1360764731
 C         -1.1967888345        2.8271585370       -1.0935091324
 C         -2.4500892321        2.5966752836       -1.6342653440
 C         -3.3863716266        1.8332566243       -0.9600568500
 C         -3.0522454420        1.2893147504        0.2730949549
 C         -1.7938149642        1.5122254200        0.8085870892
 H         -1.5286367894        1.0769739287        1.7649645335
 N         -4.0010192118        0.5051369425        0.9691681517
 S         -4.4251807617       -0.9379925670        0.2316934029
 O         -5.1744726335       -0.6504823976       -0.9637503974
 O         -5.1094493286       -1.7054371887        1.2474898633
 C         -2.8698783180       -1.7048922739       -0.1807915117
 C         -2.2370407575       -2.4676129872        0.7804491474
 C         -0.9986182852       -3.0160030845        0.4912207125
 C         -0.4155971931       -2.7859033844       -0.7452169160
 C         -1.0598563655       -2.0104659784       -1.6960121364
 C         -2.2986087496       -1.4594282412       -1.4126146285
 H         -2.8295517482       -0.8508914289       -2.1260172227
 H         -0.5981194560       -1.8216198825       -2.6512783189
 H          0.5483862990       -3.2133480264       -0.9686926847
 H         -0.4903779832       -3.6162495664        1.2291051810
 H         -2.7292996312       -2.6306034167        1.7262611904
 H         -3.7250262342        0.3141643481        1.9226481207
 H         -4.3620098441        1.6347196554       -1.3734948359
 H         -2.7016537680        3.0166549476       -2.5963003074
 H         -0.4711992693        3.4072804799       -1.6394645719
 H          0.3420646396        2.6350733441        1.8492517673
 C          1.2797864549        3.6411976433        0.2429834040
 C          2.7564830582        3.7485989589        0.4794392952
 C          2.2315296303        3.5607132860       -0.9104870543
 H          2.2766406092        4.3991313496       -1.5903198132
 H          2.3683674885        2.6051618035       -1.3894200788
 H          3.1683518656        4.7080883659        0.7538027878
 H          3.2426770045        2.9113255226        0.9599815099
 H          0.7101856980        4.5609288545        0.3371834979
