  62
        -98.93012379
 C         -2.2018947283       -0.5609019447       -0.1815486558
 C         -3.4620880733       -1.1477870215       -0.4623231943
 C         -4.6353463892       -0.5119956874        0.1548067056
 C         -4.4518308922        0.5399360314        0.9726901591
 C         -5.5438760088        1.3497275535        1.6119391198
 C         -6.1622961773        2.3093101229        0.5751030587
 C         -7.6233114819        2.0139476214        0.2349554736
 H         -8.2549784764        2.3582986772        1.0564910762
 H         -7.8790519791        2.6044524925       -0.6474036114
 C         -7.9627937136        0.5444823093       -0.0326719923
 H         -8.0669241461        0.0132835445        0.9145189511
 H         -8.9453966019        0.5272817396       -0.5088452580
 C         -6.9732620707       -0.2227880451       -0.9191765048
 H         -7.5451984433       -0.8809670487       -1.5763800170
 H         -6.4201762416        0.4632005788       -1.5612916214
 C         -5.9801185318       -1.1128251076       -0.1485942200
 H         -5.7603011200       -1.9971880427       -0.7540156352
 H         -6.4435060879       -1.4577151067        0.7798452532
 H         -6.0978363918        3.3340456420        0.9440751082
 H         -5.5590551843        2.2657629473       -0.3343376227
 H         -6.3028524303        0.6862445290        2.0204313116
 H         -5.0935310189        1.9123284614        2.4298534888
 O         -3.2241929445        1.0428024583        1.2601340448
 C         -2.0674431268        0.5131076029        0.6992080934
 O         -1.0257428301        1.0814205653        1.0736728397
 O         -3.5985253181       -2.1645043995       -1.1946455303
 C         -0.9793820783       -1.1858057671       -0.8287242433
 C          0.1216929158       -1.3769133351        0.1824945047
 C         -0.0740250435       -2.2803367715        1.2242946995
 C          0.9083990825       -2.4888638890        2.1722683035
 C          2.1141658603       -1.8145592005        2.0919518979
 C          2.3154859281       -0.9039336724        1.0618992251
 C          1.3223411443       -0.6896793552        0.1164533430
 H          1.4975426670        0.0374417953       -0.6586194848
 N          3.5150731946       -0.1807687513        0.9714408575
 S          4.1081288953        0.2213579783       -0.5543511705
 O          3.4810841209        1.4374589298       -1.0066471782
 O          4.0064564887       -0.9164838014       -1.4415490955
 C          5.8174696618        0.5425823934       -0.1577728026
 C          6.1483856001        1.7626214679        0.4015274902
 C          7.4699196553        2.0086866510        0.7380721608
 C          8.4332174850        1.0366099347        0.5115966815
 C          8.0864964692       -0.1819218260       -0.0521293379
 C          6.7661476227       -0.4352890351       -0.3895566990
 H          6.4508938386       -1.3640393213       -0.8372131800
 H          8.8380588017       -0.9340296366       -0.2301561761
 H          9.4611688380        1.2315957440        0.7733661085
 H          7.7435157369        2.9560343563        1.1738943813
 H          5.3672708240        2.4901150854        0.5499579758
 H          4.2402596601       -0.5348440117        1.5796152099
 H          2.8856147668       -1.9805258032        2.8285656224
 H          0.7398155021       -3.1898791620        2.9760477235
 H         -1.0143767864       -2.8121129480        1.2827138187
 H         -1.3199796289       -2.1855650932       -1.1483809025
 C         -0.5069863511       -0.4689909977       -2.0846884337
 C         -1.4777773661        0.2142648983       -2.9990683728
 C         -0.4994504608        1.0241146681       -2.2047964088
 H          0.3303288150        1.4892341837       -2.7179160559
 H         -0.8607496545        1.5961257705       -1.3642582916
 H         -1.3301162144        0.1255053674       -4.0647826306
 H         -2.5156256470        0.2321199797       -2.6997503301
 H          0.3166765052       -0.9939581869       -2.5615165991
