  62
        -98.94054715
 C         -1.8609773843       -1.0887141562       -0.0977914450
 C         -2.3150456924        0.1081147556       -0.7051575759
 C         -3.7725160027        0.3037384479       -0.7118004744
 C         -4.5821378479       -0.6293208908       -0.1810861294
 C         -6.0851438034       -0.5792315235       -0.1353688815
 C         -6.6448581618        0.2209220493        1.0488565101
 C         -6.4809348222        1.7378590693        0.9449425853
 H         -6.8707712884        2.0795738158       -0.0144211452
 H         -7.1026423894        2.1811007118        1.7254423659
 C         -5.0386469289        2.2330739979        1.1226486142
 H         -4.4381293292        1.4476985723        1.5873372820
 H         -5.0280104363        3.0877055780        1.8028002161
 C         -4.3556706652        2.6765395873       -0.1712732115
 H         -3.3289710744        2.9684654984        0.0647233346
 H         -4.8700810919        3.5508991219       -0.5763322218
 C         -4.3001433483        1.5955748795       -1.2586996702
 H         -5.2872800604        1.4504747347       -1.6972219454
 H         -3.6145712096        1.9315047197       -2.0407267154
 H         -7.7116202534       -0.0038419036        1.1185778746
 H         -6.1698660863       -0.1348919003        1.9660568664
 H         -6.4674318009       -0.1660637013       -1.0691411540
 H         -6.4281721160       -1.6122470904       -0.0454990132
 O         -4.1068476752       -1.7712254499        0.3837607630
 C         -2.7448217973       -2.0105007207        0.4699086138
 O         -2.4486706039       -3.0632145266        1.0692691552
 O         -1.5612859628        0.9752662175       -1.2165189806
 C         -0.3814327531       -1.4109221601        0.0260775870
 C          0.3806478593       -0.1815455239        0.4566987848
 C          0.0253232591        0.4325796838        1.6559085034
 C          0.6769793483        1.5692698624        2.0900378469
 C          1.7181743888        2.1047336639        1.3511881048
 C          2.0866727607        1.4955647948        0.1594220041
 C          1.4197638689        0.3599885003       -0.2818887297
 H          1.7064942500       -0.0649404807       -1.2285419984
 N          3.1434238375        2.0095798810       -0.6126425036
 S          4.3150956532        0.9537180799       -1.1677088011
 O          5.4621047416        1.7904501116       -1.4448882881
 O          3.8154703050        0.1774175356       -2.2728865350
 C          4.6464367958       -0.1002801267        0.2327747166
 C          5.3674508917        0.4263957709        1.2867656680
 C          5.5720933028       -0.3508795359        2.4147499079
 C          5.0462000279       -1.6327068371        2.4736293429
 C          4.3272631071       -2.1484342467        1.4066205459
 C          4.1237784020       -1.3763535204        0.2737862132
 H          3.5754355588       -1.7423870787       -0.5787905019
 H          3.9199010978       -3.1458858304        1.4530973331
 H          5.1994723115       -2.2356126507        3.3547272126
 H          6.1361297815        0.0442159939        3.2442224987
 H          5.7678045247        1.4234057781        1.1989712446
 H          3.5644636029        2.8456521050       -0.2342756529
 H          2.2296449397        2.9940729980        1.6869699843
 H          0.3783441012        2.0409813045        3.0141368396
 H         -0.7865608299        0.0123620733        2.2346725640
 H         -0.3198376300       -2.1465293175        0.8455845541
 C          0.2104998694       -2.0827940692       -1.2036358248
 C         -0.6368025726       -2.8935903690       -2.1368954366
 C         -0.0585375600       -1.5889193960       -2.5919324039
 H          0.7526721090       -1.6018140613       -3.3060960354
 H         -0.7168601742       -0.7413992639       -2.6993848893
 H         -0.2258171969       -3.8083351735       -2.5371178762
 H         -1.6978747212       -2.9420379120       -1.9389408552
 H          1.2077320196       -2.4686072215       -1.0139090503
