  62
        -98.94511723
 C          0.9661636472        1.2317860025        0.4724525816
 C          1.4915313253        0.0655281104        1.0818279948
 C          2.2446685857       -0.8438346892        0.2085287155
 C          2.3368476140       -0.5639664255       -1.1040622824
 C          3.0871793014       -1.3930588757       -2.1056617247
 C          4.5386849433       -0.9161129092       -2.2526037286
 C          5.2659289547       -0.7398497219       -0.9195172283
 H          6.2892998917       -0.4329952789       -1.1455462799
 H          4.7994856451        0.0787639667       -0.3666971358
 C          5.2902673429       -1.9971050860       -0.0391513332
 H          5.0656231214       -2.8763525700       -0.6439301844
 H          6.2990459168       -2.1259595171        0.3585179899
 C          4.3415619081       -1.9495027827        1.1599131402
 H          4.5971378017       -2.7770202972        1.8268601917
 H          4.5001247944       -1.0212673534        1.7144550414
 C          2.8461978512       -2.0690157314        0.8386903349
 H          2.3164480670       -2.2030724438        1.7864137594
 H          2.6721711433       -2.9491562300        0.2152591741
 H          5.0771070414       -1.6360332988       -2.8717621247
 H          4.5359206684        0.0444452835       -2.7731541936
 H          2.5799678778       -1.3034483611       -3.0682880903
 H          3.0657572470       -2.4360009213       -1.7940448014
 O          1.7852082818        0.5402372855       -1.6639647183
 C          1.0698868392        1.4545623299       -0.9031362048
 O          0.6041496142        2.4016958148       -1.5634596501
 O          1.3258197769       -0.2107937654        2.3005223544
 C          0.1186014657        2.1506774440        1.3374823712
 C         -1.2143333683        2.3447925788        0.6600178184
 C         -1.7775029490        3.5770716267        0.3614776231
 C         -2.9797556487        3.6442709738       -0.3226888562
 C         -3.6259182879        2.4964206211       -0.7425791377
 C         -3.0711938774        1.2570607875       -0.4418033828
 C         -1.8975969857        1.1936253439        0.2866922276
 H         -1.4705021632        0.2297678334        0.5226671147
 N         -3.6814157995        0.0607248225       -0.8492431300
 S         -2.7218600335       -1.2364741982       -1.3024553263
 O         -1.4805924953       -0.8209502512       -1.9126100210
 O         -3.5940266804       -2.0478956918       -2.1277778937
 C         -2.4146889521       -2.1066243090        0.2196949581
 C         -1.1242229088       -2.4650179232        0.5541196022
 C         -0.9057235779       -3.1615317589        1.7320214721
 C         -1.9769259520       -3.4865867944        2.5494182136
 C         -3.2682715330       -3.1233827460        2.1971137218
 C         -3.4932675526       -2.4282829187        1.0201017796
 H         -4.4804948326       -2.1307162567        0.7088317731
 H         -4.0979072479       -3.3788022255        2.8363147838
 H         -1.8008512006       -4.0250003618        3.4672220726
 H          0.0998095484       -3.4354499153        2.0078688651
 H         -0.3144534314       -2.1778222695       -0.1004793052
 H         -4.4756660409        0.1738677090       -1.4623080998
 H         -4.5434497794        2.5544020614       -1.3082489909
 H         -3.4067521965        4.6079755201       -0.5561173515
 H         -1.2641678740        4.4841112094        0.6353708044
 H         -0.0524482669        1.5662123121        2.2578472049
 C          0.7906221507        3.4436400622        1.7696464919
 C          2.2842077079        3.5495961577        1.8373741054
 C          1.5232611325        4.3342740980        0.8132626323
 H          1.4420143144        5.4032994891        0.9468988080
 H          1.5730260568        4.0246315950       -0.2183815873
 H          2.7263709059        4.0761071126        2.6698529960
 H          2.8595465220        2.6988259965        1.5014473447
 H          0.2408053283        3.9371566843        2.5653359763
