  62
        -98.93559887
 C          2.4401526210        0.7785029586        0.3980898403
 C          2.3757454507       -0.6356807614        0.4916958800
 C          3.4124259406       -1.3875611615       -0.2248069200
 C          4.3222841209       -0.7147894516       -0.9525155997
 C          5.4684090309       -1.3443215717       -1.6888389196
 C          6.7206887607       -1.4214254421       -0.8040266995
 C          6.4624871504       -2.0113289923        0.5824507904
 H          7.4205788303       -2.0432592026        1.1056756105
 H          5.8129170704       -1.3344328223        1.1420851204
 C          5.8395429101       -3.4142688422        0.5697444201
 H          5.9785737001       -3.8725116920       -0.4100483300
 H          6.3648583398       -4.0373372524        1.2966285000
 C          4.3556367900       -3.4526621519        0.9398746198
 H          4.0745786197       -4.4951852019        1.1111439096
 H          4.1978224800       -2.9129094720        1.8769846299
 C          3.3912288603       -2.8858698215       -0.1099227502
 H          2.3738091002       -3.1480252213        0.1949552796
 H          3.5879389303       -3.3490963114       -1.0790368903
 H          7.4726145007       -2.0195694322       -1.3218734894
 H          7.1173778509       -0.4113963922       -0.6778426592
 H          5.6904571712       -0.7341814916       -2.5659523895
 H          5.1790820007       -2.3411769516       -2.0159886999
 O          4.3256948512        0.6364824885       -1.0598608795
 C          3.3923485413        1.4227421885       -0.3928966495
 O          3.5354041016        2.6421703785       -0.5928578693
 O          1.4919828705       -1.2393220813        1.1587739098
 C          1.3836949411        1.5543040487        1.1664784202
 C          0.1785220212        1.7545163591        0.2835441901
 C          0.2712199816        2.4597650693       -0.9130988898
 C         -0.8363136183        2.5985321197       -1.7291270600
 C         -2.0504713584        2.0329247899       -1.3783896202
 C         -2.1471617388        1.3097980097       -0.1977436704
 C         -1.0359443389        1.1809875893        0.6270514298
 H         -1.1092088892        0.6035354592        1.5386415497
 N         -3.3755121590        0.7277841899        0.1691954893
 S         -4.2295469989       -0.0812105897       -1.0464075810
 O         -3.3383988390       -0.9375010197       -1.7968264410
 O         -4.9581785386        0.8972838406       -1.8147879109
 C         -5.3639507293       -1.0512266496       -0.0736329413
 C         -5.0519884796       -2.3665822897        0.2131385485
 C         -5.9260098399       -3.1074285997        0.9931900383
 C         -7.0878009999       -2.5220540595        1.4736533282
 C         -7.3863544895       -1.2001272094        1.1779651084
 C         -6.5181191393       -0.4540886494        0.3970230186
 H         -6.7128628390        0.5722915307        0.1337525388
 H         -8.2913609395       -0.7498190593        1.5524598883
 H         -7.7655138501       -3.1015058595        2.0804675980
 H         -5.6970439802       -4.1357314198        1.2225419681
 H         -4.1407877697       -2.7823277399       -0.1870980514
 H         -3.2786800692        0.1364980898        0.9842345292
 H         -2.9157987283        2.1242546902       -2.0149599404
 H         -0.7537207680        3.1491636598       -2.6545455098
 H          1.2221283017        2.8854732592       -1.1972061996
 H          1.0835030508        0.8765300886        1.9811177301
 C          1.9075861612        2.8321085485        1.8062533005
 C          1.3744507816        4.1971086287        1.5002196207
 C          1.0624300112        3.5532728985        2.8151337205
 H          1.5318367112        3.9356964682        3.7087318207
 H          0.0559290411        3.1911461087        2.9634657703
 H          2.0815487018        5.0121587885        1.4733386009
 H          0.5781958417        4.2891433890        0.7787062906
 H          2.9698628412        2.7753313782        2.0183013307
