  62
        -98.93458616
 C         -2.3009935070       -0.8404857710        0.1800351366
 C         -3.0722144175       -0.1893494672        1.1761097168
 C         -3.9880621930        0.8733327604        0.7283541925
 C         -4.0386170565        1.1765229850       -0.5799308550
 C         -4.9302853413        2.1790313485       -1.2591243120
 C         -6.2192545630        1.5082626007       -1.7638289702
 C         -7.3553070338        1.4455682330       -0.7436932965
 H         -7.7536063325        2.4504372380       -0.5885952722
 H         -8.1525840037        0.8412757957       -1.1825940163
 C         -6.9808593590        0.8521916936        0.6168905569
 H         -6.3558514978       -0.0311841485        0.4734819965
 H         -7.9009166134        0.5212515288        1.1024667914
 C         -6.2656670482        1.8534650363        1.5361314667
 H         -6.3603053968        2.8545586930        1.1160908391
 H         -6.7671220815        1.8762075462        2.5058744010
 C         -4.7871423733        1.5455034475        1.8113243003
 H         -4.2762280096        2.4712888031        2.0964982319
 H         -4.7093050181        0.8712341518        2.6700534663
 H         -5.9639812089        0.4978768269       -2.0939103888
 H         -6.5795553649        2.0550914271       -2.6376072645
 H         -5.1523691614        3.0096241324       -0.5958581705
 H         -4.3742533127        2.5552617409       -2.1204637447
 O         -3.2751493475        0.5349147820       -1.5053131843
 C         -2.3908315763       -0.4776939742       -1.1637242577
 O         -1.7682674048       -0.9419982158       -2.1382710940
 H          0.1753160193       -0.4542758795       -0.9858111522
 C          0.6729915100       -0.6659717284       -0.0503623511
 C          0.0177756569       -1.4222710792        0.9117447461
 C          0.6787633436       -1.6992433722        2.1022971798
 C          1.9625152596       -1.2295904455        2.3201928914
 C          2.6105427902       -0.4744836021        1.3593323262
 C          1.9590924011       -0.1925925409        0.1654682726
 N          2.6039886117        0.5832753536       -0.8151301446
 S          4.1312354313        0.0874262451       -1.3132674535
 O          4.2902706908        0.6187734388       -2.6489728763
 O          4.2952226188       -1.3401859684       -1.1639572461
 C          5.2356128660        0.9481318886       -0.2132223696
 C          6.1498605665        0.2395833913        0.5415088160
 C          7.0036794317        0.9339564680        1.3846453486
 C          6.9286342767        2.3164731297        1.4571509419
 C          6.0069903912        3.0134158646        0.6897505126
 C          5.1517334659        2.3255753720       -0.1561027167
 H          4.4241651128        2.8282978992       -0.7713653466
 H          5.9516870245        4.0885417017        0.7483572886
 H          7.5929336933        2.8545318290        2.1147973010
 H          7.7214378627        0.3943371596        1.9812974119
 H          6.1675689313       -0.8352282310        0.4562243706
 H          2.0191883272        0.7721711482       -1.6171842658
 H          3.6093836288       -0.1046990196        1.5235485632
 H          2.4637037586       -1.4514467074        3.2498289771
 H          0.1754724851       -2.2780470122        2.8627638005
 C         -1.3729033911       -1.9444840215        0.6548877061
 H         -1.7894746884       -2.2591312253        1.6247840914
 C         -1.3823372248       -3.1638093813       -0.2581710217
 C         -0.2234216086       -3.5784444695       -1.1097757545
 C         -0.5832082295       -4.3810800999        0.1023360430
 H         -1.0306683183       -5.3540062132       -0.0325855492
 H          0.0733186925       -4.3087974100        0.9562735591
 H         -0.4417023822       -3.9802729473       -2.0877085668
 H          0.6786801427       -2.9864521394       -1.0817656633
 H         -2.3665203295       -3.3395462626       -0.6814691936
 O         -3.0051832375       -0.4958338179        2.3967333571
