  62
        -98.93669322
 C          2.5974063383        0.0611150277        0.5534985169
 C          2.0643322488       -0.4208386458       -0.6656603475
 C          1.5985731969       -1.8234777795       -0.6858687012
 C          1.7400877191       -2.5738582222        0.4211956570
 C          1.3386450579       -4.0081189745        0.6511652410
 C         -0.1705118218       -4.1774802385        0.8694098448
 C         -1.0473885610       -3.4626568938       -0.1545148158
 H         -2.0901502110       -3.6282576732        0.1320093925
 H         -0.8736576278       -2.3860202504       -0.0946213890
 C         -0.8787695633       -3.9317501511       -1.5984053837
 H         -1.0500450354       -5.0095881993       -1.6482410537
 H         -1.6599522502       -3.4394612444       -2.1826777110
 C          0.4659545008       -3.6134753586       -2.2596267535
 H          0.3265079436       -3.7100098858       -3.3401918746
 H          1.2305613486       -4.3349191013       -1.9816651547
 C          0.9699939870       -2.1967880624       -2.0054675402
 H          1.7148525346       -1.9411979040       -2.7684811175
 H          0.1472329309       -1.4860737211       -2.1520223536
 H         -0.3990983685       -5.2453168249        0.8662347625
 H         -0.4197808965       -3.7781651875        1.8559367437
 H          1.6785141092       -4.6316733848       -0.1704236290
 H          1.8586769300       -4.3332194338        1.5555073924
 O          2.2962476662       -2.0766798043        1.5659764556
 C          2.6780368619       -0.7555100070        1.6809612542
 O          3.0793956567       -0.4320018803        2.8189461309
 H          0.3681163432        1.1909189946        1.1546558309
 C          0.5415671700        2.0230495865        0.4872311951
 C          1.8454914460        2.3713749335        0.1562164299
 C          2.0465909691        3.4499891414       -0.6938775568
 C          0.9636122674        4.1348697843       -1.2191138721
 C         -0.3316089587        3.7450590694       -0.9339011271
 C         -0.5426560704        2.6710451860       -0.0763976989
 N         -1.8445441663        2.2262923272        0.2379702373
 S         -2.0880543368        0.5498995629        0.1883722466
 O         -1.5592220537       -0.0406295329        1.3928338874
 O         -1.6074781093        0.0134236328       -1.0635285721
 C         -3.8700062901        0.4912741168        0.2345116584
 C         -4.5040212018        0.7453288499        1.4359479131
 C         -5.8890409429        0.7356969834        1.4777016761
 C         -6.6130880665        0.4731059709        0.3238884188
 C         -5.9629179426        0.2162599254       -0.8735508488
 C         -4.5774578930        0.2263026511       -0.9222956689
 H         -4.0275998542        0.0273312703       -1.8280991907
 H         -6.5278751010        0.0086592641       -1.7679580607
 H         -7.6909835770        0.4662126765        0.3591795937
 H         -6.3977139226        0.9319257327        2.4077718446
 H         -3.8985012436        0.9350607912        2.3068725231
 H         -2.5436671109        2.6862373110       -0.3319967438
 H         -1.1724431780        4.2582372167       -1.3761039769
 H          1.1325705745        4.9686622463       -1.8838278316
 H          3.0474138664        3.7384584148       -0.9704917222
 C          2.9522604339        1.5274098470        0.7432956847
 H          2.9441467773        1.6768837375        1.8368637551
 C          4.3415371734        1.9190536548        0.2630826688
 C          5.4247960487        0.8939404057        0.1128775652
 C          4.8441275807        1.5534611364       -1.0999549829
 H          5.4522184556        2.2708824931       -1.6314743887
 H          4.1833981024        0.9818292626       -1.7319576006
 H          6.4259656580        1.1599573901        0.4175756057
 H          5.1674395360       -0.1371544585        0.3089530989
 H          4.6502022348        2.8831826050        0.6554660795
 O          1.9700490170        0.2791562683       -1.7079268148
