  62
        -98.93325370
 C         -1.6443697383       -0.0605163423       -0.6005138976
 C         -2.8483247807        0.3595430391       -1.2211727333
 C         -4.0983344188       -0.0706177686       -0.5807340153
 C         -4.0481212730       -0.8687961147        0.5000752027
 C         -5.2198433578       -1.4442402308        1.2510618486
 C         -6.1298736272       -0.4318999980        1.9731986596
 C         -7.3480953949        0.0180050450        1.1570252402
 H         -7.5796404718       -0.7514115141        0.4194749971
 H         -8.2111708747        0.0835770700        1.8226691452
 C         -7.2195977403        1.3747116748        0.4576895534
 H         -8.0284912983        1.4524884309       -0.2719284307
 H         -7.3628645063        2.1697425676        1.1930570998
 C         -5.8895493995        1.6388214899       -0.2482625465
 H         -5.1198403916        1.8657029627        0.4935576652
 H         -6.0010484789        2.5357360304       -0.8607585739
 C         -5.3849831579        0.4771140578       -1.1262533545
 H         -6.1369507040       -0.3073224169       -1.1965726263
 H         -5.1674334120        0.8381298415       -2.1334506142
 H         -6.4894503000       -0.9218259176        2.8795370480
 H         -5.5397298429        0.4293370138        2.2856924669
 H         -5.8193087907       -2.0416447637        0.5602719657
 H         -4.7859537462       -2.1231650386        1.9881884466
 O         -2.8719936661       -1.3022144778        1.0294135213
 C         -1.6443110096       -0.9092662315        0.5074298800
 O         -0.6682602113       -1.3926342913        1.1101588918
 O         -2.8771677073        1.0546875308       -2.2710870116
 C         -0.3383376429        0.4006981868       -1.2219758244
 C          0.6358543817       -0.7442652842       -1.3253258812
 C          0.3213415023       -1.8163335787       -2.1563622259
 C          1.1810355774       -2.8902502834       -2.2770794317
 C          2.3797753617       -2.9093945422       -1.5864245617
 C          2.7076433151       -1.8409033852       -0.7596427140
 C          1.8363064401       -0.7674574867       -0.6332062497
 H          2.0810831583        0.0271156835        0.0502945448
 N          3.9446442327       -1.8153094799       -0.1088242666
 S          4.3142969281       -0.8318686949        1.1812453630
 O          5.6402822895       -1.2667431229        1.5708891704
 O          3.3176987829       -0.8626481596        2.2249918115
 C          4.4183915293        0.8009244432        0.4765439566
 C          3.9787993210        1.8750228136        1.2245838720
 C          4.0692084402        3.1502085638        0.6891510025
 C          4.5989340341        3.3285915279       -0.5793810374
 C          5.0433893459        2.2405356756       -1.3150237379
 C          4.9568173427        0.9631915766       -0.7844939282
 H          5.2888775663        0.0967604234       -1.3314113997
 H          5.4546451929        2.3835104873       -2.3012902923
 H          4.6639356083        4.3212759761       -0.9961607659
 H          3.7244137381        3.9969476577        1.2613083392
 H          3.5637963430        1.6865668177        2.2025817289
 H          4.4788877097       -2.6698279766       -0.1268266876
 H          3.0540049451       -3.7468606276       -1.6803846791
 H          0.9189036255       -3.7207823988       -2.9153189454
 H         -0.6165587296       -1.8017024721       -2.6949606559
 H         -0.6166472040        0.6998468091       -2.2466699452
 C          0.2603649211        1.6330019759       -0.5597893210
 C         -0.6173534325        2.6795474830        0.0562474892
 C          0.2543159989        1.8262343043        0.9256181090
 H          1.1210535851        2.2774507926        1.3854871286
 H         -0.2030710200        1.0575206422        1.5296168766
 H         -0.3509855545        3.7167169875       -0.0791404312
 H         -1.6823072882        2.4988633024        0.0639458458
 H          1.1366822538        1.9926178573       -1.0912587569
