  62
        -98.94399361
 C         -1.7699114055       -1.2076218751        0.4185993573
 C         -1.8969707962       -0.2891494028       -0.6511542903
 C         -3.2701579118       -0.0327637725       -1.1120027331
 C         -4.2944474502       -0.6855111734       -0.5330130403
 C         -5.7428975444       -0.4803446259       -0.8681617263
 C         -6.3710306875        0.5982775089        0.0253700744
 C         -5.5535825010        1.8877840957        0.1032769491
 H         -6.1073126588        2.5867880492        0.7338420877
 H         -4.6065408262        1.6816557822        0.6075553643
 C         -5.2687361539        2.5415979770       -1.2560665958
 H         -5.9593678644        2.1540671996       -2.0058995034
 H         -5.4495609023        3.6153799882       -1.1729910899
 C         -3.8323351405        2.3703721317       -1.7547295345
 H         -3.1317909119        2.6707700194       -0.9707417936
 H         -3.6830274265        3.0472637366       -2.6004132104
 C         -3.4512098317        0.9607377104       -2.2247744081
 H         -4.1861710261        0.6026109200       -2.9486600792
 H         -2.4804857086        1.0305452431       -2.7247352439
 H         -7.3702737610        0.8214223802       -0.3527955335
 H         -6.4718666659        0.1955593401        1.0358493151
 H         -5.8320188364       -0.1972879488       -1.9150387128
 H         -6.2694725051       -1.4227937041       -0.7091508278
 O         -4.1283937521       -1.5831870432        0.4716437865
 C         -2.8701380160       -1.8516369203        0.9848113147
 O         -2.8616525920       -2.6684935986        1.9277997375
 H          2.0937779598       -0.4277983775        0.5173695197
 C          1.5016219922        0.1583751836        1.1980650010
 C          0.2222533686       -0.2499007323        1.5384619420
 C         -0.5075925397        0.5263481191        2.4360194749
 C          0.0276446216        1.6823770935        2.9686351566
 C          1.3003672186        2.0945963110        2.6115582579
 C          2.0383441317        1.3286188278        1.7195250519
 N          3.3466942356        1.6962884340        1.3570873333
 S          3.7265891390        1.8104895496       -0.2765406711
 O          4.9338369601        2.6107642160       -0.3022167166
 O          2.6163475897        2.3181669122       -1.0468623343
 C          4.1352227252        0.1514063590       -0.7721440035
 C          3.4243788608       -0.4515082872       -1.7909782638
 C          3.7775853997       -1.7331724154       -2.1837278456
 C          4.8282436105       -2.3839911682       -1.5541057138
 C          5.5312610882       -1.7633519230       -0.5321137095
 C          5.1857117391       -0.4811507593       -0.1367139606
 H          5.7107496181        0.0399745851        0.6461539862
 H          6.3454867337       -2.2749051181       -0.0447972223
 H          5.0981222386       -3.3821246652       -1.8620942610
 H          3.2283605138       -2.2183687709       -2.9751518477
 H          2.6038255272        0.0860867383       -2.2407835327
 H          3.6937931724        2.5099522373        1.8461354115
 H          1.7176273421        3.0026083292        3.0207137703
 H         -0.5512749975        2.2731469638        3.6628829020
 H         -1.5041095133        0.2066059484        2.7108180794
 C         -0.4006004841       -1.5146728983        0.9983736905
 H         -0.5792448214       -2.1904934258        1.8477193223
 C          0.4622335820       -2.2308473245       -0.0189024924
 C          1.5474258218       -3.1565529776        0.4401455478
 C          0.3049624132       -3.7108469567       -0.1879870224
 H          0.3678536766       -4.1247931165       -1.1829286078
 H         -0.4149078129       -4.2079794326        0.4461370162
 H          1.6748879076       -3.2834907310        1.5044732929
 H          2.4677519284       -3.1907883786       -0.1228904115
 H          0.6329414126       -1.6404461330       -0.9117878655
 O         -0.9183346015        0.2857078582       -1.1957614675
