  62
        -98.94417032
 C          2.2482659519        0.8639425164        0.4089175711
 C          2.4544845808        0.0152623337       -0.7059090000
 C          3.3022421868       -1.1587786627       -0.4610484539
 C          3.7869396488       -1.3903668349        0.7724249448
 C          4.6447057824       -2.5567021310        1.1826600213
 C          6.1403571583       -2.3623286472        0.8976249156
 C          6.5376908943       -2.4438317115       -0.5768230775
 H          7.6269296281       -2.5098797495       -0.6113463681
 H          6.1421657393       -3.3640131234       -1.0079140062
 C          6.0889620111       -1.2426575337       -1.4208672251
 H          5.8297278975       -0.4108459605       -0.7618070675
 H          6.9188740195       -0.9075922250       -2.0470200862
 C          4.9070222977       -1.5256467732       -2.3482172495
 H          5.1985009129       -2.2637911828       -3.0985641529
 H          4.6501712856       -0.5994897343       -2.8683960633
 C          3.6481424407       -2.0300442859       -1.6305927946
 H          2.8119244312       -1.9880351858       -2.3327623040
 H          3.7856251160       -3.0625383261       -1.3101329347
 H          6.4513426681       -1.3981895015        1.3065776759
 H          6.6787012040       -3.1424757748        1.4407591445
 H          4.5123608142       -2.6760821874        2.2602913066
 H          4.2933708117       -3.4623618413        0.6873165798
 O          3.5232951385       -0.5745172110        1.8292515448
 C          2.7657371954        0.5755106647        1.6705657865
 O          2.6152045145        1.2403928397        2.7173135603
 H         -0.1136656829        0.1639445290        1.2138345415
 C         -0.6356882415        0.7147248168        0.4396678619
 C          0.0117053481        1.7716714114       -0.1886121804
 C         -0.6769459146        2.4809214856       -1.1637221477
 C         -1.9684110613        2.1226028205       -1.5104518456
 C         -2.6002861748        1.0574536459       -0.8963509514
 C         -1.9264601206        0.3495549751        0.0905656004
 N         -2.5576193408       -0.7411073541        0.7165691460
 S         -4.0763996186       -0.4866451368        1.3890226229
 O         -4.2402953083        0.8826387651        1.8200270303
 O         -4.2131052226       -1.5026495813        2.4099771652
 C         -5.2012049629       -0.8478356660        0.0572643275
 C         -5.1139183685       -2.0855008554       -0.5494771496
 C         -5.9868023842       -2.3866617995       -1.5826449538
 C         -6.9285050800       -1.4518638793       -1.9868899611
 C         -7.0055171730       -0.2150794799       -1.3650216881
 C         -6.1346341529        0.0930577687       -0.3313198481
 H         -6.1529195040        1.0434479362        0.1778040974
 H         -7.7382049308        0.5100402158       -1.6809319813
 H         -7.6063658910       -1.6892122465       -2.7915275847
 H         -5.9295595336       -3.3472108004       -2.0689005226
 H         -4.3698532332       -2.7834982833       -0.2033797253
 H         -1.9626801991       -1.2289271489        1.3707059605
 H         -3.6024383854        0.7707440133       -1.1698626697
 H         -2.4887878492        2.6791163019       -2.2748236104
 H         -0.2013551543        3.3133694627       -1.6555378565
 C          1.4126260395        2.1209732586        0.2548220158
 H          1.3449762750        2.5670399383        1.2587031061
 C          2.1117574432        3.0989226872       -0.6671508299
 C          1.9392688972        4.5751414826       -0.4781918404
 C          3.2397863768        3.9210544366       -0.1229907925
 H          4.0988032320        4.1003706004       -0.7519732739
 H          3.4833257459        3.7965112722        0.9225955363
 H          1.9087334843        5.2074176082       -1.3527158085
 H          1.3026847366        4.9056234771        0.3287897444
 H          2.2121132314        2.7174819419       -1.6766567608
 O          1.9562866935        0.2216991488       -1.8418528213
