  62
        -98.92977929
 C         -2.1373045335        0.5920079168       -0.8830101639
 C         -2.5204491991        0.2658892342        0.4399938174
 C         -3.3463736107       -0.9483340362        0.6036485174
 C         -3.6516599875       -1.6985028011       -0.4701451608
 C         -4.4418030631       -2.9842530256       -0.5973805686
 C         -5.3487587151       -3.4595607626        0.5351027997
 C         -6.5589973385       -2.5668539440        0.8065173072
 H         -7.2426360813       -2.6386957988       -0.0432172841
 H         -7.0786905810       -2.9561824068        1.6847648870
 C         -6.2524373792       -1.0875650672        1.0273430830
 H         -5.8380313592       -0.6581367186        0.1128450408
 H         -7.1988934823       -0.5755933458        1.2213370148
 C         -5.3113085232       -0.7805798505        2.1909725037
 H         -5.3146140060        0.3028118352        2.3389529986
 H         -5.6922553279       -1.2423597260        3.1038547744
 C         -3.8481979572       -1.2156940600        1.9932266853
 H         -3.2234055930       -0.6192063780        2.6646529023
 H         -3.7057509056       -2.2605651462        2.2582181642
 H         -5.7249147416       -4.4425777955        0.2387001297
 H         -4.7730489873       -3.6045187511        1.4444598113
 H         -5.0369717979       -2.8759482576       -1.5097378539
 H         -3.7049380997       -3.7688340917       -0.8020786918
 O         -3.1887673618       -1.3855642581       -1.7169262463
 C         -2.4359341633       -0.2503277060       -1.9550062571
 O         -2.0884496117       -0.1097616131       -3.1451934072
 O         -2.1999463143        0.9416288856        1.4503236380
 C         -1.3238847247        1.8341368165       -1.2038084162
 C         -0.1633260814        1.9598648037       -0.2473669458
 C         -0.0301095231        2.9949912183        0.6675020766
 C          1.0632386799        3.0415616163        1.5146791249
 C          2.0430114009        2.0675431695        1.4670494843
 C          1.9232875701        1.0303294778        0.5508757618
 C          0.8292787077        0.9886044057       -0.3008322099
 H          0.7308294816        0.1789611272       -1.0146793631
 N          2.9071485606        0.0228662236        0.5020942252
 S          4.5199445105        0.5242079149        0.5616179922
 O          4.8700457227        0.7772236170        1.9366871399
 O          4.7331984460        1.6218032041       -0.3555398234
 C          5.3598089710       -0.9386661346       -0.0117970518
 C          5.7561086910       -1.0190670175       -1.3331748412
 C          6.3943399736       -2.1683878727       -1.7724953916
 C          6.6209606960       -3.2126830126       -0.8886605476
 C          6.2166749408       -3.1172309508        0.4348059247
 C          5.5793991065       -1.9705212930        0.8810551589
 H          5.2569357468       -1.8475680909        1.9017480932
 H          6.3972927136       -3.9304842925        1.1190830214
 H          7.1190111449       -4.1052174978       -1.2330959728
 H          6.7124215343       -2.2442565602       -2.7998419021
 H          5.5673022337       -0.1791859705       -1.9826397092
 H          2.7584894065       -0.6115743917       -0.2709842221
 H          2.8989159772        2.0969900860        2.1218922320
 H          1.1523236388        3.8473722065        2.2279127452
 H         -0.7946330224        3.7512642298        0.7356083105
 H         -0.9080423661        1.6470568212       -2.2079377745
 C         -2.1514779441        3.1062954854       -1.3128229152
 C         -3.5561378938        3.0629340267       -1.8345072341
 C         -3.2998393444        3.4072012801       -0.3996281137
 H         -3.4475630904        4.4301893996       -0.0853591824
 H         -3.5424502870        2.6797699168        0.3582545807
 H         -3.8796831751        3.8453489329       -2.5043993326
 H         -3.9732254612        2.0927367221       -2.0633046669
 H         -1.5476969725        3.9509263116       -1.6309784426
