  62
        -98.94195004
 C         -1.2217016550       -1.5673847704        0.5291409993
 C         -2.1232483194       -1.1386743002       -0.4736381132
 C         -3.0934371923       -0.1034359271       -0.0781998225
 C         -3.0855853520        0.3669782317        1.1804997559
 C         -4.0009017167        1.3881479099        1.8083547054
 C         -4.3266597159        2.6473206728        0.9941929902
 C         -3.1985222991        3.1490221379        0.0806183018
 H         -2.2539619526        2.6557395896        0.3213685789
 H         -3.0510381914        4.2171854645        0.2541771088
 C         -3.5041669984        2.9569278224       -1.4067138893
 H         -2.8661122146        3.6334259090       -1.9808105887
 H         -4.5421916830        3.2426798555       -1.5941259535
 C         -3.2651941571        1.5477740509       -1.9455547592
 H         -2.1917370326        1.3355574065       -1.9404632642
 H         -3.5927339771        1.5243431976       -2.9880671420
 C         -3.9721883520        0.4177194033       -1.1778409578
 H         -4.1215081315       -0.4171182505       -1.8679914534
 H         -4.9414697434        0.7401004204       -0.8051397327
 H         -4.5836581928        3.4275246325        1.7129787238
 H         -5.2165315473        2.4714166627        0.3908634446
 H         -4.9352437341        0.8868684091        2.0787283629
 H         -3.5072006968        1.6754856977        2.7399332740
 O         -2.2097754066       -0.0886754265        2.1205864739
 C         -1.2380419457       -1.0252033395        1.8114664041
 O         -0.4599035647       -1.2892935376        2.7524150302
 H          0.4335664186        0.0304538947       -0.2253796606
 C          0.9666651001       -0.5962345886       -0.9218380617
 C          0.7811445260       -1.9701160606       -0.8837395932
 C          1.4576909172       -2.7518877998       -1.8126135742
 C          2.2802863919       -2.1598868780       -2.7557471563
 C          2.4569264388       -0.7880126712       -2.7908073320
 C          1.7858624715        0.0020492807       -1.8644962580
 N          1.9079097629        1.3981370844       -1.8678899693
 S          1.7820929698        2.2757592444       -0.4530856933
 O          0.4262046405        2.2735216570        0.0349019953
 O          2.3267937474        3.5717117872       -0.7978991889
 C          2.8805802280        1.4556186524        0.6882530919
 C          4.2371611025        1.5645567496        0.4457243707
 C          5.1258821315        0.9081938342        1.2800966989
 C          4.6460131688        0.1493723587        2.3375725197
 C          3.2836109353        0.0533595743        2.5711381030
 C          2.3894534906        0.7125396647        1.7412834524
 H          1.3254138971        0.6472388106        1.9086062527
 H          2.8978008120       -0.5346280177        3.3889288846
 H          5.3359162255       -0.3675475901        2.9857116500
 H          6.1864642839        0.9868325155        1.1038629240
 H          4.5702211833        2.1739725050       -0.3785664237
 H          2.5995439513        1.7760499284       -2.4971705442
 H          3.0937815538       -0.3311092187       -3.5323318124
 H          2.7944167215       -2.7776309092       -3.4762600361
 H          1.3330082785       -3.8224825400       -1.8033617380
 C         -0.1177273195       -2.5486210782        0.1857245745
 H          0.4822067432       -2.6646615398        1.1015132965
 C         -0.6944566079       -3.8980424931       -0.1928386588
 C          0.0332936048       -5.1611034023        0.1544911583
 C         -1.2162991793       -4.7894031153        0.8927380849
 H         -2.1171127718       -5.3549933784        0.7080253869
 H         -1.1253735924       -4.4344666905        1.9093727104
 H          0.9727491041       -5.0717308949        0.6789177164
 H         -0.0113226376       -5.9881150102       -0.5381300950
 H         -1.2501182045       -3.8637553995       -1.1225851414
 O         -2.1207691192       -1.5948743467       -1.6466547412
