  62
        -98.93183833
 C         -2.5479730935       -1.1490784685        0.5267236706
 C         -3.4136619601       -0.9209261800       -0.5693575481
 C         -4.5717823408       -0.0393266859       -0.3124641001
 C         -4.7356391384        0.4983023762        0.9075196747
 C         -5.8016899862        1.4614313153        1.3514567122
 C         -5.3139450647        2.9135391064        1.2118751495
 C         -5.5510307947        3.5437162978       -0.1600290308
 H         -6.6193054650        3.7301223016       -0.2891042900
 H         -5.0467058711        4.5127517285       -0.1637509166
 C         -5.0501104884        2.7244102635       -1.3522788611
 H         -4.0638229217        2.3138026263       -1.1283286626
 H         -4.9323461120        3.4035731984       -2.1989099417
 C         -6.0092503250        1.5936538557       -1.7528627139
 H         -6.9644798173        1.7419366183       -1.2494325434
 H         -6.2120471405        1.6544665860       -2.8241707370
 C         -5.4967750628        0.1715998250       -1.4804307887
 H         -6.3537751592       -0.5015965812       -1.3717012577
 H         -4.9307910980       -0.1827595270       -2.3477208918
 H         -4.2464707532        2.9318589634        1.4464775377
 H         -5.8226482538        3.5272124570        1.9581369608
 H         -6.7222171040        1.3002666893        0.7984467234
 H         -5.9851763851        1.2563035754        2.4082468967
 O         -3.8714526757        0.2603914523        1.9332725381
 C         -2.7709491836       -0.5564948506        1.7721882033
 O         -2.0737424013       -0.6874181858        2.7992586849
 H          1.0688978091       -1.7873287577        1.6791975653
 C          1.0380333017       -1.2275030750        0.7537530200
 C         -0.1203414258       -1.2375676383       -0.0087101494
 C         -0.1503887532       -0.4977050180       -1.1869919511
 C          0.9567902296        0.2288627906       -1.5848626171
 C          2.1095468850        0.2398381995       -0.8184652084
 C          2.1499445978       -0.4929149438        0.3596644055
 N          3.3076876674       -0.4696857569        1.1525354266
 S          4.8010367326       -0.7003404151        0.4239803178
 O          4.6883911343       -1.5223169758       -0.7581500214
 O          5.6581863249       -1.1996499243        1.4764951019
 C          5.3200361273        0.9439702572       -0.0180145678
 C          5.3552015035        1.9038390121        0.9743585395
 C          5.7641797074        3.1872010721        0.6492193099
 C          6.1313163094        3.4866359948       -0.6544474609
 C          6.0941986472        2.5107027587       -1.6384635887
 C          5.6854829311        1.2248963717       -1.3198647970
 H          5.6359635172        0.4356631969       -2.0531818978
 H          6.3805554517        2.7453961159       -2.6510933767
 H          6.4484125853        4.4867468307       -0.9046678674
 H          5.7945897492        3.9488334843        1.4117084276
 H          5.0644156224        1.6308815971        1.9751213777
 H          3.2318342685       -0.9972697420        2.0098087496
 H          2.9728274534        0.8072744247       -1.1252691350
 H          0.9216465569        0.7971477029       -2.5020152979
 H         -1.0483555969       -0.5047842163       -1.7859843262
 C         -1.3155719938       -2.0353949861        0.4458298573
 H         -1.1248202256       -2.3499477738        1.4844317760
 C         -1.5396314363       -3.3018325117       -0.3697075797
 C         -0.8684662562       -3.5866657490       -1.6761002670
 C         -0.4562296686       -4.3371348817       -0.4478413475
 H         -0.7248047456       -5.3786917155       -0.3565347600
 H          0.5007575133       -4.0886013491       -0.0123124122
 H         -0.1853879795       -2.8536160485       -2.0749606246
 H         -1.4457213942       -4.0982066859       -2.4309574919
 H         -2.5540456833       -3.6727112265       -0.2649450465
 O         -3.2466716367       -1.4120809627       -1.7146912184
