  62
        -98.94623003
 C         -1.5845257593       -1.5811652475       -0.2429296093
 C         -1.4496476454       -0.2224152045       -0.6188185882
 C         -2.7053116438        0.5292826855       -0.7393813906
 C         -3.8794705654       -0.0865383717       -0.5129328749
 C         -5.2413270846        0.5469530118       -0.6043943224
 C         -5.6618202271        1.3008459259        0.6650506210
 C         -4.9348383444        2.6241242350        0.9096571268
 H         -4.9959546447        3.2413937049        0.0129369756
 H         -5.4783454952        3.1448638731        1.7006632655
 C         -3.4673882851        2.4733290962        1.3358288404
 H         -3.2905709885        1.4507202616        1.6770403992
 H         -3.2659858171        3.1315858277        2.1838511277
 C         -2.4509498820        2.8132513755        0.2454815839
 H         -1.4488298417        2.6236236270        0.6382839662
 H         -2.5250129463        3.8738283266       -0.0041146077
 C         -2.6125217832        1.9941916078       -1.0411453997
 H         -3.4897492351        2.3270724609       -1.5952442128
 H         -1.7235427237        2.1462125926       -1.6574065609
 H         -5.5191051291        0.6423263432        1.5250940566
 H         -6.7311284282        1.5085638715        0.5806931318
 H         -5.9522620257       -0.2645288638       -0.7742309175
 H         -5.2755086971        1.2229277051       -1.4591649449
 O         -3.9655348711       -1.4020842339       -0.1759785499
 C         -2.8251600939       -2.1722046535       -0.0083474012
 O         -3.0457281770       -3.3488201948        0.3454743621
 O         -0.3456490195        0.3350106306       -0.8413948649
 C         -0.3401016456       -2.4307371027       -0.0527513470
 C          0.5301086968       -1.7789155997        0.9936401137
 C          0.0108228785       -1.6110973754        2.2757168735
 C          0.7497651132       -0.9885534326        3.2620559002
 C          2.0186614078       -0.5077333591        2.9874107715
 C          2.5463962529       -0.6733847124        1.7131760819
 C          1.8072110154       -1.3143376787        0.7273060765
 H          2.2463565093       -1.4343772562       -0.2479908799
 N          3.8350971481       -0.2119802097        1.4115507425
 S          4.2012467801        0.4075686698       -0.0939753861
 O          4.3109813603       -0.6573975810       -1.0596981362
 O          5.4142326495        1.1682488663        0.1312896259
 C          2.8900793895        1.5289553275       -0.5443820255
 C          2.3958374687        1.5016669342       -1.8305277963
 C          1.4305385893        2.4235861699       -2.1988318003
 C          0.9749554790        3.3500202035       -1.2763553406
 C          1.4765267972        3.3606822993        0.0152722633
 C          2.4470044774        2.4460260350        0.3868166577
 H          2.8571696394        2.4385628134        1.3839079345
 H          1.1113965317        4.0776148739        0.7337040101
 H          0.2182551374        4.0641079562       -1.5620531297
 H          1.0312601740        2.4081587993       -3.2006588423
 H          2.7678882827        0.7558042974       -2.5149826322
 H          4.2907558261        0.3049515092        2.1487514052
 H          2.5963055964       -0.0132995452        3.7535237412
 H          0.3338123514       -0.8676033346        4.2509976783
 H         -0.9867908519       -1.9749371812        2.4834579150
 H         -0.6835485325       -3.3999903329        0.3359854703
 C          0.3607913473       -2.6541491380       -1.3753703984
 C          1.2853206872       -3.8209016500       -1.5435078288
 C         -0.0445639146       -3.8118065697       -2.2346294153
 H         -0.0695908322       -3.6755496713       -3.3054108092
 H         -0.8216351743       -4.4619677377       -1.8592718476
 H          2.1788201479       -3.6888779458       -2.1352152421
 H          1.4131468293       -4.4814919132       -0.6991451873
 H          0.6159660046       -1.7278304228       -1.8773515259
