  62
        -98.94171666
 C         -2.3782815458       -1.0727234135        0.1218352525
 C         -3.6362991004       -0.9376939050        0.7673421573
 C         -4.6077288716       -0.0401334038        0.1301977394
 C         -4.2581315474        0.6123620354       -0.9927576585
 C         -5.1260206035        1.5986324594       -1.7181016696
 C         -4.8842006835        3.0282811874       -1.2141338057
 C         -4.9187689069        3.1610223414        0.3084428399
 H         -4.0740378267        2.6130294706        0.7326011185
 H         -4.7670859723        4.2162777165        0.5456587237
 C         -6.2200555545        2.6717752823        0.9596180877
 H         -6.5357377035        3.4057513687        1.7039770892
 H         -7.0094231713        2.6113151271        0.2095226654
 C         -6.1025225209        1.3280412775        1.6813229881
 H         -7.0038363861        1.1855694196        2.2833083561
 H         -5.2519165768        1.3538509675        2.3669913618
 C         -5.9564894266        0.0962068244        0.7791178969
 H         -6.7471932830        0.0957841437        0.0260607421
 H         -6.0786085910       -0.7910105055        1.4072469188
 H         -5.6387273907        3.6818175993       -1.6557853297
 H         -3.9026849519        3.3571807770       -1.5639502236
 H         -4.8846046447        1.5523374313       -2.7814715588
 H         -6.1703747097        1.3251366336       -1.5800111622
 O         -3.0401479179        0.4774211701       -1.5728362646
 C         -2.0649053418       -0.3564837922       -1.0351865094
 O         -1.0043125672       -0.3596695944       -1.6880687845
 O         -3.9334956974       -1.5439772645        1.8306321751
 C         -1.3618534867       -1.9891537499        0.7829020415
 C         -0.0539448407       -1.2631896908        0.9610272172
 C          0.0967283493       -0.3726857331        2.0197974088
 C          1.2693680750        0.3413609250        2.1789627377
 C          2.3104726452        0.1921267290        1.2791728210
 C          2.1602402424       -0.6762903567        0.2068654849
 C          0.9922932709       -1.4144734685        0.0657372270
 H          0.8810043752       -2.0792420696       -0.7766524041
 N          3.2031769416       -0.8274875218       -0.7212065743
 S          4.0271613984        0.5328405072       -1.2547312730
 O          3.2106838834        1.7233921499       -1.2125083098
 O          4.5633601204        0.1630600888       -2.5469539272
 C          5.3762109162        0.6765835187       -0.0982271785
 C          6.1753438771       -0.4303811206        0.1114171140
 C          7.2356414540       -0.3328674062        0.9980388775
 C          7.4805717686        0.8641304913        1.6544618810
 C          6.6719725115        1.9676940682        1.4306827893
 C          5.6088953056        1.8760492555        0.5454806380
 H          4.9511479140        2.7068068436        0.3436851627
 H          6.8638207604        2.8979194825        1.9410115701
 H          8.3065418495        0.9376168297        2.3441566165
 H          7.8667243792       -1.1889987686        1.1743602014
 H          5.9536703126       -1.3401053173       -0.4208976399
 H          2.9616738860       -1.4242156229       -1.4994257846
 H          3.2214193942        0.7576439593        1.3876338464
 H          1.3746548391        1.0246719909        3.0079965165
 H         -0.7229042835       -0.2404607768        2.7127343202
 H         -1.7838642682       -2.1811728046        1.7825435275
 C         -1.1988085462       -3.3481238678        0.1180055453
 C         -2.3938631340       -4.0809802088       -0.4122348587
 C         -1.3474433565       -3.5723129723       -1.3557192683
 H         -0.6932088643       -4.2908129977       -1.8285225744
 H         -1.5812591443       -2.7237945942       -1.9793208419
 H         -2.4654420151       -5.1449138958       -0.2444887659
 H         -3.3436408826       -3.5670968800       -0.3808818298
 H         -0.4488616905       -3.9497346530        0.6230865296
