  62
        -98.94305993
 C          0.3155580220        2.1210500703        0.2684094289
 C          1.0626070512        1.4088232333        1.2357992065
 C          2.4116452017        0.9890428750        0.8356754519
 C          2.8719122140        1.3342924755       -0.3801815547
 C          4.1742608654        0.8828743964       -0.9767228578
 C          4.0231747342       -0.5536890948       -1.5196216860
 C          4.8641704525       -1.6001832124       -0.7867651568
 H          4.5059562472       -2.5806744760       -1.1086074729
 H          5.9057179902       -1.5062724172       -1.1031846312
 C          4.8298739060       -1.5353099535        0.7433730054
 H          5.2290133976       -2.4830673019        1.1110876716
 H          5.5081999163       -0.7545791006        1.0917812721
 C          3.4483639632       -1.3047870238        1.3697231095
 H          3.3657372413       -1.9340032379        2.2587624091
 H          2.6628033623       -1.6207562847        0.6803087953
 C          3.1880990539        0.1494076470        1.8108147631
 H          2.5840077630        0.1402889222        2.7230517569
 H          4.1365938342        0.6383009176        2.0486925718
 H          4.2992059122       -0.5741476270       -2.5755478664
 H          2.9685560811       -0.8371432896       -1.4700013064
 H          4.9627378385        0.9301567056       -0.2287541675
 H          4.4177546971        1.5697894307       -1.7878197575
 O          2.1526439090        2.0823297313       -1.2558823446
 C          0.8392197516        2.4407991360       -0.9837831925
 O          0.2677196393        3.0372538724       -1.9165901189
 O          0.6083862995        1.1123324631        2.3749534148
 C         -1.1482116176        2.4029339226        0.5470535476
 C         -2.0156439189        1.5598405199       -0.3611775544
 C         -3.2769918811        1.9556214985       -0.7902515932
 C         -4.0257228703        1.1301895455       -1.6119811663
 C         -3.5449911136       -0.1016560773       -2.0187619995
 C         -2.2847566589       -0.5076816188       -1.5936252268
 C         -1.5451610648        0.3180639654       -0.7637790548
 H         -0.5619863915       -0.0012719280       -0.4597915281
 N         -1.7360015905       -1.7280514299       -2.0039135120
 S         -0.5834340101       -2.5366273377       -1.1106923790
 O          0.6647875879       -1.8150786643       -1.1045232921
 O         -0.5454879842       -3.8535077404       -1.7107728197
 C         -1.2642302026       -2.6571293792        0.5324077855
 C         -2.3767217340       -3.4603499849        0.6993522021
 C         -2.9546885707       -3.5563363426        1.9538085093
 C         -2.4171090490       -2.8456242368        3.0171488033
 C         -1.2982231141       -2.0490472948        2.8351093923
 C         -0.7127076649       -1.9538451697        1.5821925805
 H          0.1553055299       -1.3348084068        1.4205228954
 H         -0.8743475812       -1.4858805153        3.6512349320
 H         -2.8700693696       -2.9146179703        3.9935879500
 H         -3.8217449203       -4.1802527886        2.0993168782
 H         -2.7574302612       -4.0061183826       -0.1485492040
 H         -2.3538663915       -2.3474184855       -2.5045003810
 H         -4.1278496750       -0.7359592420       -2.6685044188
 H         -5.0011465078        1.4524447464       -1.9433846152
 H         -3.6684047150        2.9137497090       -0.4894302386
 H         -1.3179794979        2.0638529333        1.5809752793
 C         -1.4609624020        3.8822765722        0.4649987552
 C         -2.4978415735        4.4906155868        1.3604468842
 C         -1.0455653280        4.7710248562        1.5981299939
 H         -0.6608943162        5.7532212531        1.3684703696
 H         -0.5648610534        4.3015497672        2.4441127189
 H         -3.1132357735        5.2863211735        0.9683161033
 H         -3.0049759794        3.8394435890        2.0563664412
 H         -1.3568849798        4.2735210108       -0.5403770217
