  62
        -98.94258271
 C          1.1679484508        1.5623574324        0.5190112447
 C          2.1105445395        1.2421764246       -0.4851091727
 C          3.1460357584        0.2584371174       -0.1231362272
 C          3.1339100786       -0.3002947846        1.1012866931
 C          4.0624683597       -1.3115974523        1.7396917762
 C          4.9812395336       -2.1768623669        0.8809824711
 C          4.2618386137       -3.1578031215       -0.0438324961
 H          5.0154934661       -3.6642874265       -0.6515555667
 H          3.7628647523       -3.9142705072        0.5674826838
 C          3.2081632769       -2.5520275488       -0.9690819241
 H          2.8108288513       -3.3582970838       -1.5929495103
 H          2.3662984628       -2.1764800085       -0.3816782233
 C          3.7088641564       -1.4486156009       -1.9003261353
 H          2.9015096751       -1.2285651817       -2.6043584904
 H          4.5645156569       -1.8128316567       -2.4728401478
 C          4.0983851805       -0.1249894697       -1.2177967935
 H          5.1201170021       -0.1535943863       -0.8467497766
 H          4.0406795986        0.6692495762       -1.9678647695
 H          5.6652162734       -1.5542688704        0.3117665081
 H          5.5891249242       -2.7648919259        1.5742732098
 H          4.6802008885       -0.7504106049        2.4500007683
 H          3.4165037558       -1.9634967356        2.3366633160
 O          2.2089528316        0.0494611641        2.0420632673
 C          1.1919671107        0.9458895826        1.7673279812
 O          0.3810414716        1.1071584022        2.7037070771
 H         -0.4514054974       -0.1079698468       -0.2026801202
 C         -0.9942350843        0.4971934317       -0.9108393892
 C         -0.8551388883        1.8769641827       -0.8794138056
 C         -1.5417547009        2.6300134961       -1.8240705341
 C         -2.3302071581        2.0048163215       -2.7751220436
 C         -2.4669358208        0.6281176075       -2.7986225961
 C         -1.7862039425       -0.1332514827       -1.8555269859
 N         -1.8742791974       -1.5326625764       -1.8377168727
 S         -1.8153493823       -2.3612229419       -0.3871981903
 O         -0.4826338093       -2.3413166108        0.1612928361
 O         -2.3438221671       -3.6697288055       -0.7104855564
 C         -2.9661297219       -1.5003283506        0.6700808964
 C         -2.5268812751       -0.6924266238        1.6982116712
 C         -3.4634168948       -0.0027186465        2.4535445459
 C         -4.8139422558       -0.1322561998        2.1726021387
 C         -5.2409095507       -0.9559831481        1.1414122842
 C         -4.3104857893       -1.6434241767        0.3809212294
 H         -4.6015631304       -2.3029070869       -0.4204566203
 H         -6.2923658256       -1.0610414288        0.9282623022
 H         -5.5360589307        0.4091791772        2.7630561941
 H         -3.1193779049        0.6341480533        3.2531018084
 H         -1.4718872001       -0.6005728031        1.9055223573
 H         -2.5422780430       -1.9334880666       -2.4787989162
 H         -3.0814619395        0.1462291165       -3.5431757970
 H         -2.8514073970        2.6003057091       -3.5091433305
 H         -1.4521001883        3.7040794634       -1.8208364151
 C          0.0059335240        2.4849114066        0.2046340151
 H         -0.6000734242        2.5328655223        1.1225439231
 C          0.4931605983        3.8795224675       -0.1305240975
 C         -0.3285820444        5.0781426400        0.2350338467
 C          0.9326426147        4.7774267847        0.9857295517
 H          1.7933077849        5.4103458334        0.8304776808
 H          0.8514940074        4.3914471532        1.9918173883
 H         -1.2677038839        4.9080428981        0.7396595582
 H         -0.3325206058        5.9240462013       -0.4358164649
 H          1.0645637138        3.9086711304       -1.0507187233
 O          2.0915757292        1.7481111810       -1.6377934166
