  62
        -98.94345684
 C         -2.2870757492       -0.5888401792        0.0349186613
 C         -3.1874202092       -0.2345540382        1.0761134610
 C         -4.1165480690        0.8627292616        0.7920670601
 C         -4.0616326290        1.4884429706       -0.3972101304
 C         -4.9233775688        2.6415998603       -0.8343873014
 C         -6.2895101089        2.2225057500       -1.3948169810
 C         -7.2915738290        1.7163545610       -0.3564394206
 H         -7.3723039689        2.4426211617        0.4528932688
 H         -8.2650411390        1.6673289207       -0.8484365905
 C         -6.9606631091        0.3330492215        0.2211686706
 H         -6.2370477692       -0.1683217091       -0.4258217090
 H         -7.8623398792       -0.2834925484        0.2293168211
 C         -6.4146265791        0.3562332927        1.6489272706
 H         -6.1790128392       -0.6699134271        1.9422436714
 H         -7.1820558590        0.7328028033        2.3287322903
 C         -5.1469093790        1.2021357626        1.8263287098
 H         -5.3932540589        2.2627978926        1.7838377789
 H         -4.7197850190        0.9796174634        2.8070441900
 H         -6.7206552688        3.0965295297       -1.8884533018
 H         -6.1340160090        1.4543770194       -2.1559839904
 H         -5.0663273587        3.3287124011        0.0000876980
 H         -4.3727214888        3.1601601296       -1.6222076219
 O         -3.1703204090        1.1392477897       -1.3600907501
 C         -2.2807288392        0.0882232897       -1.1843596993
 O         -1.5602625792       -0.1138111112       -2.1841715291
 O         -3.2139152892       -0.8166771073        2.1924983315
 C         -1.3536770794       -1.7541139091        0.3176315623
 C          0.0434327607       -1.2963788090        0.6644993019
 C          0.5896860607       -1.5693658580        1.9132178221
 C          1.8795713007       -1.1731645879        2.2203644918
 C          2.6485886608       -0.4940615088        1.2925869112
 C          2.1112548208       -0.2132538698        0.0431333109
 C          0.8204449508       -0.6190634299       -0.2646069087
 H          0.4066124008       -0.3940576607       -1.2365507289
 N          2.8743163409        0.4989888593       -0.8996972297
 S          4.4126921508       -0.0688792912       -1.2602758892
 O          4.7045798409        0.4318938976       -2.5856458397
 O          4.5053922506       -1.4993042710       -1.0786399080
 C          5.4608830709        0.7623584897       -0.0847358500
 C          6.2787509909        0.0268216303        0.7505473707
 C          7.0926916209        0.6963349210        1.6511682301
 C          7.0753741011        2.0818268110        1.6991702889
 C          6.2502697112        2.8059978404        0.8513220283
 C          5.4348374811        2.1428934897       -0.0517459011
 H          4.7819733512        2.6672944092       -0.7296349416
 H          6.2397001113        3.8833615504        0.8912309174
 H          7.7087547212        2.6007923215        2.4012010584
 H          7.7351599609        0.1352973015        2.3106111705
 H          6.2546885307       -1.0489886098        0.6806289116
 H          2.3648560409        0.7046057487       -1.7475179799
 H          3.6530383408       -0.1809493987        1.5262039609
 H          2.2903531707       -1.3931001071        3.1938507919
 H         -0.0086531994       -2.0880824173        2.6479854026
 H         -1.7728460594       -2.2403675883        1.2089237627
 C         -1.3156565295       -2.7723948401       -0.8062448668
 C         -0.8918559897       -4.1765255999       -0.5013843856
 C         -2.3242475997       -3.8796642000       -0.8276574159
 H         -2.7164955797       -4.2005969707       -1.7810213056
 H         -3.0469194096       -3.9121001492       -0.0252674158
 H         -0.2947251198       -4.7030178806       -1.2301230352
 H         -0.6436752397       -4.4125903190        0.5222498246
 H         -1.0190929395       -2.3529083709       -1.7590818672
