  62
        -98.93998475
 C         -2.4428962652        0.3049111776        0.3678792681
 C         -3.1247307704        0.1666490184       -0.8672117813
 C         -4.3267295524       -0.6760143775       -0.8596301321
 C         -4.7032512158       -1.2692836245        0.2877951581
 C         -5.9341613953       -2.1113784277        0.4551391571
 C         -7.1348560415       -1.2597838700        0.8905959931
 C         -7.3419237311       -0.0046259188        0.0429495048
 H         -8.2326881064        0.5008532303        0.4222006334
 H         -6.4984668446        0.6723879530        0.1966895945
 C         -7.5073619183       -0.2733293813       -1.4593599833
 H         -7.7626025759       -1.3209655054       -1.6227437554
 H         -8.3408448541        0.3254017175       -1.8327256506
 C         -6.2857311117        0.0875996573       -2.3066042577
 H         -5.9696685806        1.1086856638       -2.0781946990
 H         -6.5825457210        0.0654653706       -3.3586673085
 C         -5.0715505563       -0.8374321600       -2.1548967368
 H         -5.3802692364       -1.8755130730       -2.2949360243
 H         -4.3581989627       -0.5821589227       -2.9441912341
 H         -8.0314638425       -1.8808694242        0.8492237467
 H         -6.9822333902       -0.9510658848        1.9272881661
 H         -6.1536989036       -2.6148322240       -0.4844370986
 H         -5.7355341077       -2.8622405930        1.2217686041
 O         -4.0193342056       -1.1278195052        1.4500583821
 C         -2.8795283202       -0.3361347165        1.5290508189
 O         -2.3696515976       -0.3054520578        2.6641210971
 O         -2.7448089372        0.7316005355       -1.9298187000
 C         -1.2167176555        1.1920064650        0.3855145973
 C          0.0945298072        0.4357683859        0.3864770255
 C          0.1903980402       -0.9182558185        0.6763711850
 C          1.4193828026       -1.5556639797        0.6632844384
 C          2.5752714896       -0.8617376838        0.3583302271
 C          2.4921476821        0.4906776250        0.0525049335
 C          1.2585399677        1.1262805769        0.0709071788
 H          1.2015978609        2.1774736939       -0.1713786537
 N          3.6591348460        1.2056896758       -0.2555165782
 S          4.7717187097        0.5389229670       -1.3209724737
 O          5.4917699708        1.6708203589       -1.8618118024
 O          4.1322593299       -0.3339504317       -2.2772864074
 C          5.8650423910       -0.3949158073       -0.2704071113
 C          6.4543364317        0.2509041252        0.7988626414
 C          7.3163827148       -0.4609279789        1.6174426359
 C          7.5764211608       -1.7973674655        1.3526223869
 C          6.9803522047       -2.4301573276        0.2726558848
 C          6.1157746388       -1.7240662321       -0.5493535142
 H          5.6257677410       -2.1765095033       -1.3969889490
 H          7.1842398998       -3.4689114284        0.0676921138
 H          8.2476285876       -2.3491490776        1.9916693214
 H          7.7820081432        0.0272231472        2.4584242354
 H          6.2299041939        1.2905311440        0.9691869667
 H          3.5041008374        2.1833272973       -0.4553079036
 H          3.5315164345       -1.3581142645        0.3438121532
 H          1.4744969853       -2.6086106941        0.8948155472
 H         -0.7023097078       -1.4751471508        0.9179990837
 H         -1.2629752415        1.7585302421       -0.5566036935
 C         -1.2436206375        2.1792035608        1.5408379257
 C         -0.7914297820        3.5943428218        1.3484735842
 C         -2.2477760454        3.2914237854        1.5289215523
 H         -2.7284458089        3.5614080971        2.4568725196
 H         -2.8933625921        3.3670395895        0.6654858327
 H         -0.2626233037        4.0791958883        2.1546559238
 H         -0.4679875874        3.8957297438        0.3632255606
 H         -1.0428283243        1.7103488560        2.4962424265
