  62
        -98.94463871
 C         -1.6836669492       -1.4268552677        0.1356855678
 C         -1.6246683994       -0.3318383389       -0.7609923236
 C         -2.9217413819        0.2270203959       -1.1737257900
 C         -4.0583732958       -0.3183593663       -0.7047999860
 C         -5.4398354037        0.1906841408       -0.9953222881
 C         -5.8877148465        1.2089573973        0.0625627316
 C         -4.8572546628        2.3032006504        0.3426641038
 H         -3.9730974627        1.8550153514        0.8026171973
 H         -5.2934387591        2.9798982331        1.0807678092
 C         -4.4304393886        3.1046370399       -0.8950922706
 H         -4.4206726091        4.1661356392       -0.6386892661
 H         -5.1614384224        2.9708472801       -1.6934584338
 C         -3.0359270469        2.7630092264       -1.4239529459
 H         -2.3090740082        2.8098162879       -0.6080220278
 H         -2.7525683644        3.5271171385       -2.1531824985
 C         -2.8993563688        1.3995808666       -2.1133156280
 H         -1.9208097995        1.3750224964       -2.6017696872
 H         -3.6699739074        1.2959501150       -2.8800335570
 H         -6.0820336746        0.6759086740        0.9961010116
 H         -6.8223120735        1.6642913635       -0.2698178239
 H         -5.4538167800        0.6469480979       -1.9830710649
 H         -6.1279047745       -0.6562513809       -0.9855237375
 O         -4.0749259951       -1.3799041015        0.1407987214
 C         -2.8957770264       -1.9436062954        0.5974251686
 O         -3.0552396170       -2.8891339973        1.3957697531
 H          1.9556149023       -0.6794110397        0.3865150171
 C          1.4439488262       -0.4427068743        1.3017371275
 C          0.2467019327       -1.0674241334        1.6077346844
 C         -0.3872874703       -0.7473766358        2.8065131788
 C          0.1681060349        0.1732715261        3.6732310111
 C          1.3565159014        0.8090428020        3.3535578364
 C          1.9921118910        0.5040020274        2.1576324960
 N          3.2066128355        1.1174208276        1.7988987992
 S          3.2794021190        1.8955650042        0.3059301350
 O          4.4251230994        2.7752321634        0.4243656500
 O          2.0256614945        2.5376526483       -0.0104928166
 C          3.6690660181        0.6086021545       -0.8584784111
 C          2.7577675157        0.2538614606       -1.8334863035
 C          3.0968821398       -0.7544772516       -2.7231147465
 C          4.3284683645       -1.3834326944       -2.6230034394
 C          5.2316621634       -1.0117135335       -1.6380539712
 C          4.9019222952       -0.0041821353       -0.7462839489
 H          5.5743576281        0.3212504911        0.0298872529
 H          6.1871978111       -1.5051950565       -1.5625025208
 H          4.5832272330       -2.1697376480       -3.3163609808
 H          2.3906863501       -1.0474210100       -3.4842093288
 H          1.7947472312        0.7405494464       -1.8587573901
 H          3.5831290713        1.7237336485        2.5149279584
 H          1.7862368316        1.5380286564        4.0245781161
 H         -0.3307315666        0.4069345982        4.6020596935
 H         -1.3236656414       -1.2333792714        3.0459685089
 C         -0.4129182499       -2.0604988284        0.6807853968
 H         -0.7409346929       -2.9174796620        1.2856607362
 C          0.4877268572       -2.5576868222       -0.4293314068
 C          1.5893537419       -3.5231599209       -0.1140296372
 C          0.3849447495       -3.9827857467       -0.8781366565
 H          0.4916034500       -4.1996099475       -1.9302050494
 H         -0.3312727476       -4.6151134643       -0.3736154419
 H          1.6914724101       -3.8446947329        0.9113497550
 H          2.5262368729       -3.4222702282       -0.6406974496
 H          0.6730919665       -1.8110521990       -1.1909509542
 O         -0.5541045233        0.1553977067       -1.2074793501
