  62
        -98.93737780
 C         -2.4734118724       -1.1854055515       -0.0977689449
 C         -3.2159157895       -0.4027056748        0.8157557404
 C         -4.0144347937        0.6924312863        0.2414976791
 C         -3.9956235166        0.8945264210       -1.0874538076
 C         -4.7568522254        1.9214659748       -1.8878050093
 C         -4.8067213625        3.3534950846       -1.3358925685
 C         -3.5646997498        3.7903249477       -0.5452490763
 H         -2.7566694743        3.0703091777       -0.6877160650
 H         -3.2167205027        4.7497500314       -0.9325570860
 C         -3.8392213349        3.9620840263        0.9509927687
 H         -3.0658337011        4.6048842676        1.3789139832
 H         -4.7950660097        4.4757679469        1.0741485225
 C         -3.8578579855        2.6717835101        1.7701981745
 H         -4.1845639113        2.9209972801        2.7827534863
 H         -2.8435463860        2.2707092956        1.8541590290
 C         -4.7579265275        1.5513680992        1.2237047006
 H         -5.6719885570        1.9547984475        0.7950821660
 H         -5.0225030715        0.8971434363        2.0589385683
 H         -5.6863188887        3.4705049386       -0.7044214533
 H         -4.9440587992        4.0167432114       -2.1913952313
 H         -4.2800424039        1.9240481275       -2.8707654588
 H         -5.7783094866        1.5557683636       -2.0257452673
 O         -3.2559747294        0.1210046213       -1.9311927705
 C         -2.4715010107       -0.9235054693       -1.4671008592
 O         -1.8370642865       -1.5231601107       -2.3542066289
 O         -3.2138691393       -0.6093219482        2.0602581627
 C         -1.6170338295       -2.3215067674        0.4287189075
 C         -0.1616586727       -2.0700612007        0.1157740625
 C          0.6968576406       -3.0498535928       -0.3646076747
 C          2.0255925913       -2.7547482462       -0.6183195815
 C          2.5272157872       -1.4853413486       -0.3997600298
 C          1.6813326866       -0.5003722864        0.0938878433
 C          0.3536319152       -0.8013906289        0.3535624219
 H         -0.3026322031       -0.0319950543        0.7433989795
 N          2.1774052604        0.7978121189        0.3101413101
 S          3.5684336853        0.9671409584        1.2368551208
 O          3.6969754851       -0.1048989453        2.1966559459
 O          3.5012081844        2.3079857028        1.7761847869
 C          4.8901392452        0.8856903177        0.0474473799
 C          4.8716350181        1.7766518425       -1.0076731913
 C          5.8980357668        1.7332869067       -1.9375358524
 C          6.9211028609        0.8074647482       -1.7955264692
 C          6.9269191175       -0.0777993194       -0.7285172375
 C          5.9023193313       -0.0406758067        0.2045766775
 H          5.8614388497       -0.7125748735        1.0469888948
 H          7.7232120098       -0.7964650998       -0.6199450970
 H          7.7184465062        0.7761811687       -2.5211495489
 H          5.8964978998        2.4199191304       -2.7687406746
 H          4.0606049711        2.4820872728       -1.0797880208
 H          1.4726113146        1.4547063278        0.6123222208
 H          3.5588122041       -1.2503331327       -0.6046556357
 H          2.6791963944       -3.5253181799       -0.9975368786
 H          0.3250082009       -4.0449284670       -0.5448931154
 H         -1.7359883586       -2.2944052269        1.5229238893
 C         -2.1278482758       -3.6521541427       -0.0823276606
 C         -1.9553348401       -4.8947613124        0.7375910245
 C         -3.3121204649       -4.2763581539        0.5908612673
 H         -4.0473514294       -4.7784644267       -0.0197529405
 H         -3.7323776028       -3.7540581833        1.4381523996
 H         -1.7613699757       -5.8263127989        0.2276819072
 H         -1.4563426162       -4.8002382454        1.6903232161
 H         -2.0647343191       -3.7341711753       -1.1614894820
