  62
        -98.94312844
 C          1.8528279874        0.0260712257        0.3063670265
 C          2.7577453843        0.6711091494       -0.5725350414
 C          4.0445529235       -0.0094390693       -0.7750886432
 C          4.2884796652       -1.1876981471       -0.1756428587
 C          5.5404029150       -2.0111604212       -0.3110909462
 C          6.6760327293       -1.5786438730        0.6266370690
 C          7.3629619305       -0.2640084729        0.2543376193
 H          8.2698634094       -0.1949388988        0.8584391536
 H          7.6705621323       -0.2999168396       -0.7912035195
 C          6.5097356914        0.9882650929        0.4998533358
 H          5.6847405985        0.7406457043        1.1718568572
 H          7.1138415305        1.7474589922        1.0017608406
 C          5.9410687730        1.6260646575       -0.7676777568
 H          5.3237571130        2.4787718431       -0.4744211792
 H          6.7586268738        1.9991848562       -1.3884394998
 C          5.0755669787        0.6837682695       -1.6142290897
 H          4.5485878332        1.2808547811       -2.3621857087
 H          5.7026692117       -0.0453469767       -2.1264888506
 H          6.2815724819       -1.5089741986        1.6431160540
 H          7.4269415531       -2.3721123546        0.6159317133
 H          5.2637515126       -3.0389539435       -0.0659194959
 H          5.8885059981       -1.9824030692       -1.3440481632
 O          3.3813417415       -1.7922834165        0.6374880308
 C          2.1635038896       -1.1947503232        0.9131350676
 O          1.4502037659       -1.8408748010        1.7084369783
 O          2.5301103916        1.7560558661       -1.1674718447
 C          0.4861969827        0.5996726051        0.6537199679
 C         -0.4980350065        0.3102492701       -0.4545552271
 C         -0.4236658427        0.9520329065       -1.6871155569
 C         -1.3207918763        0.6429136158       -2.6923409476
 C         -2.3181383061       -0.2941659750       -2.4859029497
 C         -2.4002681835       -0.9425941851       -1.2601431555
 C         -1.4905918887       -0.6395576001       -0.2559489763
 H         -1.5541763003       -1.1686048988        0.6835625787
 N         -3.4030510485       -1.9011481224       -1.0190625941
 S         -4.3644017446       -1.7111985175        0.3386773833
 O         -3.6131456324       -2.0102083877        1.5301971384
 O         -5.5245201826       -2.5373694719        0.0869135689
 C         -4.8166562093        0.0130970212        0.3015439168
 C         -4.0711362858        0.9254508937        1.0197069942
 C         -4.3724981871        2.2734226942        0.9073652152
 C         -5.4093665731        2.6824732505        0.0833120518
 C         -6.1542924693        1.7529142894       -0.6267798203
 C         -5.8529444531        0.4047906804       -0.5236039670
 H         -6.4101578932       -0.3511265577       -1.0530200798
 H         -6.9633210349        2.0748864685       -1.2624029411
 H         -5.6387253635        3.7327056385       -0.0035264035
 H         -3.7927124438        2.9958723412        1.4591658262
 H         -3.2765712920        0.5647127981        1.6522991208
 H         -3.9803847963       -2.0967885674       -1.8248883362
 H         -3.0207621681       -0.5320945346       -3.2702708484
 H         -1.2469707494        1.1420582817       -3.6464944441
 H          0.3620217332        1.6706837311       -1.8586623091
 H          0.1545591921        0.0471430046        1.5436683127
 C          0.5391644671        2.0747426475        0.9987712829
 C         -0.5191524357        2.6556214748        1.8848170499
 C          0.8773666175        2.4809744555        2.4002576999
 H          1.4897876096        3.3574963219        2.5495589131
 H          1.0618137223        1.6938249552        3.1178295073
 H         -0.8685257297        3.6558189934        1.6806006144
 H         -1.2788839610        1.9870059040        2.2608335068
 H          0.9259566485        2.6934062673        0.2007178951
