  62
        -98.94596619
 C         -1.5728806571       -1.4842898455       -0.1783727217
 C         -1.5346068681       -0.1033165588       -0.4903180190
 C         -2.8412837619        0.5398858661       -0.6763386537
 C         -3.9678249782       -0.1863533560       -0.5625819577
 C         -5.3713872400        0.3278846293       -0.7360761429
 C         -5.9528724123        0.9868823646        0.5224944345
 C         -5.3696369894        2.3574413318        0.8699323804
 H         -5.4194736757        3.0044396915       -0.0063152728
 H         -6.0154903156        2.7946497507        1.6341411442
 C         -3.9305154700        2.3181061964        1.4035764303
 H         -3.6872730037        1.3010781136        1.7197346974
 H         -3.8534095259        2.9539126695        2.2884722095
 C         -2.8708134580        2.7928983129        0.4090416532
 H         -1.8885515250        2.6759220374        0.8737942557
 H         -3.0210686305        3.8529162348        0.1931720496
 C         -2.8600457156        2.0191238880       -0.9154131212
 H         -3.7200153867        2.2982424860       -1.5235872258
 H         -1.9450774462        2.2758770315       -1.4541223742
 H         -5.8157856971        0.3076839620        1.3672497425
 H         -7.0273092885        1.1032529550        0.3621151885
 H         -5.9906020129       -0.5352083039       -0.9899143950
 H         -5.4035803341        1.0343711309       -1.5658975616
 O         -3.9584101660       -1.5176020381       -0.2807230988
 C         -2.7670161256       -2.1927005516       -0.0608268610
 O         -2.9036900170       -3.3993912455        0.2284894448
 O         -0.4718119048        0.5564215563       -0.6054845703
 C         -0.2687159963       -2.2266608222        0.0497997852
 C          0.5365356671       -1.5046299637        1.1020417405
 C         -0.0676498432       -1.2027306792        2.3205246382
 C          0.6188424524       -0.5086178109        3.2969917836
 C          1.9191274452       -0.0881205544        3.0757867548
 C          2.5351746380       -0.3965474706        1.8696892678
 C          1.8499646516       -1.1149565280        0.8987194651
 H          2.3602560280       -1.3572554323       -0.0172965943
 N          3.8543148496        0.0026472415        1.6201074046
 S          4.3689833799        0.3533571636        0.0716434815
 O          4.5977894619       -0.8672171335       -0.6616217296
 O          5.5374390003        1.1856163321        0.2732749431
 C          3.0843591030        1.3124666942       -0.7090388060
 C          2.6121247313        2.4377699688       -0.0652433526
 C          1.6442423218        3.2074634150       -0.6873751613
 C          1.1717103963        2.8447190021       -1.9379530669
 C          1.6567651935        1.7133470534       -2.5719225341
 C          2.6213619819        0.9371041193       -1.9523205996
 H          3.0194113568        0.0433690069       -2.4074350330
 H          1.2784626087        1.4264810832       -3.5406265951
 H          0.4149242323        3.4442578689       -2.4196228405
 H          1.2552352142        4.0836933227       -0.1935076565
 H          3.0014730561        2.6994591700        0.9056025787
 H          4.2551310910        0.6253696443        2.3051330334
 H          2.4525084098        0.4693626022        3.8304788968
 H          0.1350463217       -0.2799788467        4.2348351523
 H         -1.0905440903       -1.5144590659        2.4858044243
 H         -0.5375346892       -3.2214270105        0.4336997470
 C          0.4685729358       -2.3880807405       -1.2630666296
 C          1.4351097334       -3.5168769749       -1.4535615214
 C          0.1173709170       -3.5288358550       -2.1676390971
 H          0.1050245371       -3.3577243946       -3.2336005403
 H         -0.6441829883       -4.2155733731       -1.8272337380
 H          2.3345615683       -3.3368587475       -2.0237058847
 H          1.5716171954       -4.2016208122       -0.6300048654
 H          0.6991181725       -1.4352034236       -1.7267846802
