  62
        -98.93728273
 C         -2.4799348626       -1.1418029870       -0.0472995366
 C         -3.5682222454       -0.8222351682        0.8001133911
 C         -4.5747317615        0.1073415599        0.2602563446
 C         -4.4092246511        0.5965985384       -0.9809279004
 C         -5.2777197315        1.5949400367       -1.6950641103
 C         -4.7452919359        3.0232193688       -1.4885120039
 C         -5.2586866423        3.7268225056       -0.2328212781
 H         -6.3132474261        3.9764051297       -0.3674501652
 H         -4.7090324745        4.6662326822       -0.1395026486
 C         -5.1057183986        2.9368213743        1.0695946577
 H         -5.1474569220        3.6466303020        1.8980451827
 H         -4.1226213897        2.4632742007        1.0997076214
 C         -6.2022216089        1.8794544755        1.2666762753
 H         -7.0003637428        2.0552000637        0.5456522206
 H         -6.6475023974        2.0007704701        2.2563390327
 C         -5.7311099320        0.4207502663        1.1702569743
 H         -6.5796598017       -0.2101237402        0.8852143008
 H         -5.4061990569        0.0777996584        2.1575336374
 H         -5.0237965921        3.6292622897       -2.3530129165
 H         -3.6536526499        2.9729055608       -1.4626379449
 H         -6.3106802922        1.5089005271       -1.3714684961
 H         -5.2202263071        1.3527694561       -2.7583039283
 O         -3.3455623554        0.2657498246       -1.7625903960
 C         -2.3554689345       -0.5976199632       -1.3251707283
 O         -1.4504094790       -0.7946806193       -2.1583905062
 O         -3.6919166652       -1.2913525178        1.9635003570
 C         -1.4116533644       -2.0834896634        0.4835651418
 C         -0.1438989815       -1.2961550160        0.7055716267
 C         -0.0153041446       -0.5330956362        1.8631860939
 C          1.1153564043        0.2300863411        2.0842939573
 C          2.1381676195        0.2573380685        1.1518945215
 C          2.0180264674       -0.4959975162       -0.0075541361
 C          0.8874709155       -1.2750293944       -0.2200747979
 H          0.8025542469       -1.8461367199       -1.1312410458
 N          3.0399067740       -0.4511913409       -0.9706293548
 S          4.6218392674       -0.7072208992       -0.4795155594
 O          5.3150505865       -1.1814661280       -1.6574343218
 O          4.6824930089       -1.5581071099        0.6866481379
 C          5.2159278910        0.9221389351       -0.0757778577
 C          5.1289557756        1.9048989914       -1.0422878215
 C          5.5948122913        3.1762056512       -0.7475848473
 C          6.1393331875        3.4412080337        0.5003132590
 C          6.2228134895        2.4427925410        1.4586278218
 C          5.7577906735        1.1690324637        1.1703400933
 H          5.7974670762        0.3629332162        1.8855447591
 H          6.6469094372        2.6508185972        2.4278352165
 H          6.5000779363        4.4320508413        0.7271596723
 H          5.5306132993        3.9553224954       -1.4900843447
 H          4.7014181775        1.6578564461       -1.9998731409
 H          2.8274872782       -0.9668501178       -1.8121007016
 H          3.0206981717        0.8544168964        1.3140513075
 H          1.2016032339        0.8131024910        2.9885994771
 H         -0.8202221343       -0.5433946501        2.5850030493
 H         -1.7797814114       -2.4147679539        1.4640553642
 C         -1.2314804859       -3.2983375110       -0.4020874634
 C         -0.4765761585       -4.4817303976        0.1231711429
 C         -1.9605913711       -4.5635126804       -0.0678924767
 H         -2.3441227009       -5.1656270113       -0.8779136668
 H         -2.5898863690       -4.5610563545        0.8099271879
 H          0.1615647481       -5.0300159243       -0.5532407245
 H         -0.0957540441       -4.4209304520        1.1315936627
 H         -1.1249853262       -3.0543621624       -1.4521547215
