  62
        -98.94187946
 C         -1.6814827701       -0.9644564505       -0.3344281501
 C         -3.0428242201       -1.3611400105       -0.3234074200
 C         -4.0286281701       -0.2950754606       -0.5343465804
 C         -3.6120862402        0.9702171494       -0.7212720907
 C         -4.4907496702        2.1623718392       -0.9871331810
 C         -5.0660442503        2.8092372396        0.2800615488
 C         -6.1668141803        2.0078492097        0.9759456289
 H         -6.6254957004        2.6679109199        1.7148881987
 H         -6.9382134303        1.7458054095        0.2510325189
 C         -5.6731429103        0.7397141899        1.6864258393
 H         -4.5904114603        0.7960425000        1.8210998493
 H         -6.1164750304        0.6845549402        2.6832825093
 C         -6.0153939702       -0.5651164003        0.9669025096
 H         -5.5877723802       -1.3936946501        1.5374479298
 H         -7.0993849802       -0.6974668003        0.9438106996
 C         -5.4821002701       -0.6551500406       -0.4690899603
 H         -5.5854440101       -1.6887665907       -0.8087429801
 H         -6.0645120901       -0.0109837508       -1.1277694106
 H         -4.2484668004        2.9906597698        0.9815014987
 H         -5.4789861603        3.7788440795       -0.0076128715
 H         -3.8676289902        2.9001135091       -1.4971888912
 H         -5.3053744602        1.8756588590       -1.6528598210
 O         -2.2986458702        1.3151018194       -0.7049907607
 C         -1.3013964402        0.3706234295       -0.4813458704
 O         -0.1560131202        0.8519354396       -0.4431189405
 O         -3.4165012601       -2.5510683505       -0.1440159997
 C         -0.6309723601       -2.0378035504       -0.1169885797
 C          0.3857484698       -1.5875431701        0.9019525502
 C         -0.0518060203       -1.2874087997        2.1899799501
 C          0.8388270297       -0.8750758894        3.1608760001
 C          2.1867920097       -0.7579631495        2.8701459701
 C          2.6366551998       -1.0623944098        1.5911626602
 C          1.7370067898       -1.4743945401        0.6164062103
 H          2.1122418799       -1.6939405503       -0.3682209596
 N          4.0065693298       -1.0000220398        1.2953433703
 S          4.6074717798       -0.4311793502       -0.1554402598
 O          4.1820563899       -1.2804799805       -1.2381740696
 O          6.0353988698       -0.3561023701        0.0693262202
 C          3.9540582998        1.2156030797       -0.3418569803
 C          2.8450306398        1.4332360795       -1.1311314904
 C          2.3381549998        2.7191751894       -1.2296050808
 C          2.9433816797        3.7563278596       -0.5385197311
 C          4.0615842397        3.5215598999        0.2483650691
 C          4.5725174097        2.2390941099        0.3511087594
 H          5.4480245097        2.0156540401        0.9392587196
 H          4.5317503696        4.3326692901        0.7810451489
 H          2.5411037397        4.7544703896       -0.6151334613
 H          1.4608992798        2.8938631092       -1.8308698509
 H          2.3867190199        0.6058307393       -1.6462106302
 H          4.5835762797       -0.6865491396        2.0621077502
 H          2.8854987796       -0.4388820892        3.6284688801
 H          0.4833636796       -0.6417254292        4.1533327800
 H         -1.1057637803       -1.3780969197        2.4168306601
 H         -1.1899255901       -2.8842440803        0.3177201805
 C          0.0018541200       -2.5538984607       -1.4004738195
 C         -0.7594179099       -2.5774452711       -2.6908811396
 C          0.4000031800       -1.6439772110       -2.5219388698
 H          1.3202587301       -1.8543763011       -3.0486035196
 H          0.1940477100       -0.5912131810       -2.4065620900
 H         -0.6441244399       -3.4336159512       -3.3384060393
 H         -1.7549423700       -2.1576580611       -2.6936343897
 H          0.6524862300       -3.4041332206       -1.2167234993
