  62
        -98.94118685
 C          1.9018109429        1.5543701180        0.1993733375
 C          2.5399396938        0.6665151067        1.1057145460
 C          3.4679638793       -0.3082500499        0.5228168151
 C          3.6895137462       -0.3039600438       -0.8037966879
 C          4.6492270317       -1.1938506642       -1.5466750195
 C          4.0839225909       -2.5758311130       -1.9016017758
 C          3.9244891720       -3.5346868414       -0.7212259710
 H          3.7286298104       -4.5250171995       -1.1371047711
 H          4.8648917974       -3.5925777100       -0.1724144181
 C          2.7847541956       -3.1673844406        0.2393668934
 H          2.1146019263       -2.4582899736       -0.2529654776
 H          2.2016832693       -4.0634481652        0.4651694510
 C          3.2434868959       -2.5730286759        1.5714670153
 H          2.3586429624       -2.3118354707        2.1576554723
 H          3.8092277164       -3.3216896192        2.1301503718
 C          4.1060021054       -1.3114197911        1.4356747066
 H          5.1016902009       -1.5723246223        1.0772917294
 H          4.1976738735       -0.8505223168        2.4220680370
 H          3.1193502370       -2.4432610466       -2.3976098862
 H          4.7666735090       -3.0308605564       -2.6229406971
 H          5.5618330062       -1.3132663458       -0.9616789552
 H          4.8976223970       -0.6751040943       -2.4752743123
 O          3.0605265494        0.5601138828       -1.6417010430
 C          2.1359204538        1.4901938145       -1.1748297863
 O          1.6194186587        2.1682535477       -2.0830221792
 O          2.3515516983        0.7004255340        2.3501612509
 C          0.9629122171        2.5816146181        0.8084046184
 C         -0.4664206111        2.1027798826        0.8125543306
 C         -1.2426917202        2.1772287240        1.9631606078
 C         -2.5573497013        1.7432363860        1.9567654546
 C         -3.1206024287        1.2180335697        0.8079175447
 C         -2.3467563031        1.1230960308       -0.3422432017
 C         -1.0316990144        1.5658851235       -0.3358226818
 H         -0.4402952977        1.5030417644       -1.2377240305
 N         -2.8992699185        0.5637449830       -1.5062871278
 S         -3.7908001585       -0.8423988509       -1.3406568588
 O         -3.6093012122       -1.5608471572       -2.5823531137
 O         -5.1527865308       -0.5094601878       -1.0036857250
 C         -3.0449154168       -1.7324287869        0.0157723308
 C         -1.6935321156       -2.0107640159       -0.0407799776
 C         -1.1029296547       -2.6816524387        1.0173528909
 C         -1.8697584403       -3.0652052895        2.1069999842
 C         -3.2266737130       -2.7858360554        2.1455339543
 C         -3.8217387418       -2.1104924837        1.0920099608
 H         -4.8713104828       -1.8651718726        1.0835792706
 H         -3.8204393476       -3.0865896640        2.9934829534
 H         -1.4026203069       -3.5835948584        2.9293135578
 H         -0.0462427414       -2.8947770797        0.9910789664
 H         -1.1194798009       -1.7021694114       -0.9007927582
 H         -2.2510102468        0.5051716549       -2.2778600701
 H         -4.1449578139        0.8831979663        0.7808748727
 H         -3.1501425063        1.8127830455        2.8556203158
 H         -0.8057828657        2.5696004768        2.8694281710
 H          1.2841814461        2.6582540746        1.8592557948
 C          1.1145659814        3.9651490330        0.1897426211
 C          0.0911541391        4.5936291028       -0.7027598043
 C          0.2833303325        5.1094071779        0.6899632059
 H          0.7550064614        6.0704530672        0.8275961139
 H         -0.4867346606        4.8855359032        1.4126458282
 H          0.4478813651        5.1828411516       -1.5338196904
 H         -0.8074106245        4.0390750534       -0.9231440388
 H          2.1510967670        4.1856750196       -0.0464962990
