  62
        -98.93342485
 C          2.4287121485        0.9267478306       -0.0209817794
 C          2.7630665875       -0.4326712890        0.1813338122
 C          4.1665701729       -0.7100473931        0.5358839991
 C          5.0310889943        0.3113364265        0.6628049744
 C          6.4856136821        0.2669995738        1.0602289352
 C          7.3574319389       -0.8328842517        0.4390148611
 C          6.9694308784       -1.2395564187       -0.9899366823
 H          6.2556656149       -0.5244373372       -1.4025741006
 H          7.8598018733       -1.2117461965       -1.6208537483
 C          6.3817850592       -2.6505675321       -1.0697484772
 H          6.4731586892       -3.0112631542       -2.0971150300
 H          6.9757855212       -3.3134363254       -0.4367994475
 C          4.9095776889       -2.7720911461       -0.6776881421
 H          4.6510579107       -3.8337087416       -0.6661738179
 H          4.2827074882       -2.2989718943       -1.4385947275
 C          4.5322631376       -2.1592279710        0.6810141464
 H          3.6291695496       -2.6621955837        1.0374431657
 H          5.3233773338       -2.3043823012        1.4125700587
 H          8.3838417220       -0.4622787265        0.4459709291
 H          7.3387014994       -1.7160663489        1.0759275247
 H          6.8831900466        1.2473154880        0.7868717434
 H          6.5374103476        0.1913768906        2.1502514889
 O          4.6596332103        1.6093396240        0.4679441746
 C          3.3652285471        1.9489877011        0.1180173193
 O          3.1753157899        3.1736872206       -0.0313422205
 H         -1.4814500257        0.1788212847       -0.7482478276
 C         -1.2080862501        0.3062720555        0.2858507526
 C          0.0218256599        0.8419977285        0.6332509522
 C          0.3234197103        0.9916639388        1.9846351441
 C         -0.5764800016        0.6019143171        2.9572908027
 C         -1.8085940957        0.0789082156        2.6058807896
 C         -2.1231968200       -0.0675075581        1.2608651803
 N         -3.3607788270       -0.5999631086        0.8648357542
 S         -4.0939060462        0.0457536476       -0.5136071165
 O         -3.5993010996       -0.6488612763       -1.6753979575
 O         -3.9542712699        1.4842573306       -0.5198033390
 C         -5.7951484023       -0.4050414925       -0.2216924340
 C         -6.2172611366       -1.6779628266       -0.5562912772
 C         -7.5321594896       -2.0352842918       -0.3032740356
 C         -8.3979813798       -1.1201614657        0.2771801782
 C         -7.9604076124        0.1540130775        0.6061933492
 C         -6.6464186914        0.5176550791        0.3568379498
 H         -6.2644034421        1.4993779658        0.5867177795
 H         -8.6365413619        0.8644004679        1.0540160729
 H         -9.4211470464       -1.4006830287        0.4713770586
 H         -7.8770061581       -3.0238342718       -0.5603299993
 H         -5.5115676740       -2.3517281387       -1.0137208365
 H         -4.0138272052       -0.6908133524        1.6310323706
 H         -2.5157110167       -0.2172095783        3.3658182084
 H         -0.3218144144        0.7177473862        4.0002245599
 H          1.2788189195        1.4171483120        2.2618157225
 C          1.0130891052        1.3107559765       -0.4049071769
 H          0.9878091877        2.4115177437       -0.4160420762
 C          0.6982752453        0.8066077862       -1.7986052074
 C         -0.2664769483        1.5474949102       -2.6731796951
 C          1.1993112182        1.5743005208       -2.9833949357
 H          1.5556730202        1.0252175076       -3.8419959682
 H          1.7470003872        2.4848496420       -2.7868876860
 H         -0.9236225409        0.9768401183       -3.3130261145
 H         -0.7209586639        2.4413374662       -2.2717708704
 H          0.7116617855       -0.2761700275       -1.8604595615
 O          1.9312741618       -1.3719981342        0.0828508299
