  62
        -98.94428011
 C          1.7820389583        1.2575848947        0.2665294182
 C          1.3431592596        0.1706354983       -0.5213569955
 C          1.8813123674       -1.1572251462       -0.1793372399
 C          2.7575663700       -1.2570398777        0.8370033808
 C          3.4648393839       -2.4986535003        1.3052295184
 C          4.6274235258       -2.9044851771        0.3766943559
 C          4.3871167702       -2.6708098992       -1.1143497429
 H          4.0824789159       -1.6339170186       -1.2684682802
 H          5.3411059392       -2.8076485704       -1.6303466286
 C          3.3683717790       -3.6031504764       -1.7666208267
 H          3.2583707636       -3.2955394758       -2.8093816448
 H          3.7647324303       -4.6214333415       -1.7591740935
 C          1.9844384764       -3.6325312357       -1.1200171679
 H          1.3395441736       -4.2510091367       -1.7517266783
 H          2.0309241093       -4.1238389074       -0.1516121203
 C          1.2899480308       -2.2778427885       -0.9980158574
 H          1.1411378716       -1.8617153802       -2.0005729135
 H          0.2846319370       -2.4418843648       -0.5864171634
 H          4.8604818313       -3.9560369537        0.5500571462
 H          5.5008104685       -2.3138895367        0.6625358546
 H          3.8689545635       -2.2811058385        2.2963219972
 H          2.7421750398       -3.3030356768        1.4147467046
 O          3.1716941566       -0.1778084163        1.5595402664
 C          2.6737819196        1.0889832119        1.3224423370
 O          3.0975514930        1.9694359712        2.1012201454
 H         -0.3541267648        1.1948428790        1.6190857516
 C         -0.9322837684        1.7800665833        0.9182798388
 C         -0.2866743289        2.6002570577        0.0016494426
 C         -1.0623151652        3.3487693576       -0.8755834187
 C         -2.4430074107        3.2516730963       -0.8522614013
 C         -3.0774588419        2.3915036682        0.0251747668
 C         -2.3105810716        1.6470727106        0.9135767737
 N         -2.9009590227        0.7335985662        1.8138715626
 S         -2.5409707376       -0.8881039135        1.5774109264
 O         -3.3209912124       -1.5930146869        2.5731712303
 O         -1.1164193773       -1.0921016609        1.6233221360
 C         -3.1952239646       -1.2505024044       -0.0429222994
 C         -4.4466852057       -1.8313573619       -0.1285410475
 C         -5.0002561849       -2.0553612007       -1.3781956422
 C         -4.2997981977       -1.6861301169       -2.5170117177
 C         -3.0478574542       -1.1007508554       -2.4127185899
 C         -2.4841303961       -0.8758307871       -1.1652844361
 H         -1.5074326910       -0.4263925590       -1.0669677534
 H         -2.4968148143       -0.8109787113       -3.2929593851
 H         -4.7305889688       -1.8562214898       -3.4911465136
 H         -5.9730745887       -2.5128659516       -1.4599023559
 H         -4.9507691722       -2.1038282654        0.7847722555
 H         -3.9044671127        0.8342503434        1.8904713921
 H         -4.1526168265        2.2925726671        0.0245476231
 H         -3.0311573932        3.8388380935       -1.5407733877
 H         -0.5834894934        4.0048437006       -1.5840871381
 C          1.2226703049        2.6448393087        0.0112725981
 H          1.5473184606        3.2664631467        0.8592361291
 C          1.8089276412        3.2156568541       -1.2650980456
 C          2.0507183347        4.6884831395       -1.3999990228
 C          3.2080657941        3.7507237194       -1.2382711569
 H          3.8482630767        3.5655030474       -2.0877219222
 H          3.7252731638        3.7293590813       -0.2897264790
 H          1.9004932641        5.1500498317       -2.3643662116
 H          1.7909231601        5.3175864918       -0.5620384831
 H          1.5016313108        2.6619499389       -2.1450001330
 O          0.5344918285        0.3036644808       -1.4788910045
