  62
        -98.94025031
 C          1.3997233278        1.6235984103       -0.0283230704
 C          2.2909982481        1.0475265078        0.9054772573
 C          3.0857604995       -0.0972020439        0.4309350429
 C          2.9079143210       -0.5466668189       -0.8235352203
 C          3.6489319703       -1.6481618520       -1.5393680938
 C          3.9409824265       -2.9380429746       -0.7613172168
 C          2.8734534400       -3.3313263720        0.2696784143
 H          1.9752702612       -2.7282179121        0.1278903588
 H          2.5972115314       -4.3748996035        0.1108682682
 C          3.3561833769       -3.1927452492        1.7152644766
 H          2.7265712792       -3.8136023309        2.3572004968
 H          4.3753714305       -3.5789594333        1.7860780894
 C          3.3201106401       -1.7745478336        2.2824192999
 H          3.7823454677       -1.7950764393        3.2724269295
 H          2.2826376522       -1.4577080895        2.4215740559
 C          4.0257515596       -0.7052950150        1.4321546893
 H          4.3258123683        0.1089974237        2.0975188395
 H          4.9164887018       -1.1074798121        0.9555945283
 H          4.9039830194       -2.8512529201       -0.2599962437
 H          4.0447585226       -3.7346735772       -1.4997994674
 H          4.5923090962       -1.2332632853       -1.9068338909
 H          3.0386753960       -1.8766075464       -2.4157960540
 O          2.0025977989        0.0113615446       -1.6749266143
 C          1.2324576297        1.1037446191       -1.3108764908
 O          0.4574313330        1.5050721867       -2.1978974312
 O          2.4263364778        1.4777595395        2.0833092451
 C          0.5756262804        2.8303515567        0.3827550120
 C         -0.8922197223        2.4991612647        0.2825034513
 C         -1.8067271988        3.2609256474       -0.4315121512
 C         -3.1349290869        2.8753559065       -0.5067032652
 C         -3.5817210327        1.7347987549        0.1339687894
 C         -2.6758748197        0.9696376514        0.8589330976
 C         -1.3465172872        1.3553619847        0.9298840002
 H         -0.6413102079        0.7557091415        1.4928715052
 N         -3.1252681218       -0.1921238892        1.5239416264
 S         -3.6887357701       -1.4614013066        0.5902741268
 O         -4.7508883716       -0.9816204758       -0.2552670855
 O         -4.0350542943       -2.5052628967        1.5274540837
 C         -2.3040785144       -1.9900747791       -0.4030426771
 C         -1.6719961931       -3.1770391292       -0.0882672663
 C         -0.5870419020       -3.5808742032       -0.8485036602
 C         -0.1454172507       -2.7869115479       -1.8962641604
 C         -0.7839875965       -1.5933280509       -2.1943757143
 C         -1.8767221884       -1.1889651872       -1.4433802335
 H         -2.3901864663       -0.2652742624       -1.6574054324
 H         -0.4284834127       -0.9591332707       -2.9911426191
 H          0.7034208826       -3.0987510302       -2.4841972120
 H         -0.0877903059       -4.5090392165       -0.6215145177
 H         -2.0490520920       -3.7610477372        0.7358860678
 H         -2.4573459330       -0.5500391438        2.1926234544
 H         -4.6081107753        1.4130397447        0.0689502023
 H         -3.8328627081        3.4735063221       -1.0727644443
 H         -1.4800170671        4.1529880558       -0.9395682712
 H          0.8168598393        3.0042355752        1.4418848213
 C          0.9854896744        4.0490110514       -0.4162461349
 C          0.7944671315        5.4220074011        0.1533325019
 C          2.1721397511        4.8447725148        0.0346770476
 H          2.8387537098        5.2459545857       -0.7138839262
 H          2.6729978393        4.5220540778        0.9358140201
 H          0.5167543078        6.2239530682       -0.5138440994
 H          0.3601275921        5.4983091009        1.1386556181
 H          0.8529942217        3.9127198453       -1.4836201897
