  62
        -98.93523478
 C         -2.1750242698       -1.2594335130        0.4530438538
 C         -2.2375797469       -0.4518836982       -0.7099596048
 C         -2.9372331886        0.8346448693       -0.5544094106
 C         -3.4848614314        1.1557259403        0.6307481768
 C         -4.1857782184        2.4483641215        0.9320016879
 C         -3.2080165898        3.4947331625        1.4848605910
 C         -1.9265284015        3.6355075691        0.6629786133
 H         -1.3262017166        4.4159353113        1.1366784447
 H         -1.3606556880        2.7030963408        0.7285365386
 C         -2.1545310989        3.9875724209       -0.8141213057
 H         -1.4571251644        4.7783553704       -1.0983846492
 H         -3.1616572318        4.3844905842       -0.9466833579
 C         -1.9362252818        2.8264242392       -1.7864421452
 H         -0.9663179428        2.3606551459       -1.5955193713
 H         -1.9128498830        3.2339041212       -2.8003151256
 C         -3.0060666003        1.7277618479       -1.7610051154
 H         -3.9982149002        2.1733041413       -1.8564973230
 H         -2.8355829962        1.0778144295       -2.6239379079
 H         -3.7213731286        4.4568552731        1.5324505286
 H         -2.9321520010        3.2071738465        2.5022849100
 H         -4.6571363069        2.8196669375        0.0241624403
 H         -4.9584876578        2.2553051871        1.6781540471
 O         -3.4156498778        0.3473364424        1.7204662995
 C         -2.7464291429       -0.8626311163        1.6632661406
 O         -2.7274472781       -1.4883268867        2.7445829418
 O         -1.7429384562       -0.7694784142       -1.8188835604
 C         -1.4685330847       -2.6115935077        0.4523351483
 C         -0.0574896755       -2.4277740975       -0.0518516723
 C          0.4162654496       -2.7068476910       -1.3272716753
 C          1.7387283432       -2.4596889143       -1.6573593202
 C          2.6187304981       -1.9175386857       -0.7405549941
 C          2.1517273486       -1.5988954782        0.5282281381
 C          0.8306575299       -1.8592999743        0.8587857116
 H          0.4728533050       -1.6105311737        1.8507782407
 N          3.0205772863       -1.0337080689        1.4753464214
 S          4.1518089069        0.1028529586        1.0076469584
 O          5.2394593299       -0.5531544140        0.3256754530
 O          4.4958042489        0.8016284058        2.2254640325
 C          3.3140341421        1.2068702202       -0.1147371775
 C          2.3511875572        2.0505811208        0.4028874973
 C          1.6872721625        2.9150480517       -0.4516152823
 C          1.9866599081        2.9125196866       -1.8056234818
 C          2.9551264128        2.0594492813       -2.3101835455
 C          3.6298172065        1.1997875256       -1.4579916751
 H          4.4001908996        0.5329536041       -1.8088101476
 H          3.1875469633        2.0619522055       -3.3628455072
 H          1.4621687749        3.5823025793       -2.4687041085
 H          0.9382402064        3.5847243047       -0.0609022069
 H          2.1474557667        2.0311579333        1.4619041569
 H          2.5779574626       -0.7800677600        2.3455700771
 H          3.6538321161       -1.7427231836       -0.9826874899
 H          2.0871522257       -2.6929996108       -2.6519732149
 H         -0.2396031996       -3.0918280355       -2.0858279728
 H         -1.3796202710       -2.8755112948        1.5183185355
 C         -2.3804647038       -3.6789651999       -0.1371746136
 C         -2.7149973507       -3.8400955495       -1.5878329054
 C         -1.9106139437       -4.8914145094       -0.8822341243
 H         -2.3909120945       -5.8338543375       -0.6637637423
 H         -0.8588969183       -4.9793973572       -1.1017079287
 H         -3.7416574410       -4.0680400263       -1.8383766587
 H         -2.2429322725       -3.1800042106       -2.2964741415
 H         -3.2137473632       -3.8385449264        0.5444647436
