  62
        -98.93928022
 C          2.4917364298        0.8341374407        0.7777804301
 C          3.2127023602        0.4402438210       -0.3758997998
 C          3.8929825705       -0.8610862988       -0.2911978397
 C          3.7874562905       -1.5914394589        0.8335615402
 C          4.3842091009       -2.9541122787        1.0317523603
 C          3.3986953214       -4.0581321790        0.6235223701
 C          2.7623992516       -3.8421193092       -0.7497136201
 H          2.1098757719       -4.6961283294       -0.9437048002
 H          2.1266316213       -2.9541190994       -0.7143493102
 C          3.7686116518       -3.6968559788       -1.8998626398
 H          4.7403396718       -4.0860435685       -1.5936990997
 H          3.4273900422       -4.3024903289       -2.7420412699
 C          3.9365882614       -2.2675881987       -2.4190033798
 H          4.4927177217       -2.3105179085       -3.3592698796
 H          2.9554827414       -1.8387127990       -2.6393506999
 C          4.6846451909       -1.3038399585       -1.4893343396
 H          4.8995509608       -0.3947208384       -2.0585129895
 H          5.6327643310       -1.7498142482       -1.1822195394
 H          3.9268972016       -5.0131892789        0.6351779401
 H          2.6001528812       -4.1019884393        1.3676663499
 H          4.6301804207       -3.0714918287        2.0884546704
 H          5.2975500811       -3.0327318484        0.4454575805
 O          3.0708617302       -1.1872116592        1.9139351201
 C          2.3953391198        0.0209326006        1.9072292800
 O          1.7495525095        0.2538921004        2.9504643999
 O          3.2932013902        1.1334962110       -1.4224822498
 C          1.7403100294        2.1552446505        0.8060280599
 C          0.5962430496        2.0860043701       -0.1775647303
 C          0.4959663696        2.8867330201       -1.3060474603
 C         -0.5775656902        2.7436164198       -2.1694793505
 C         -1.5682999599        1.8110334095       -1.9263105308
 C         -1.4827909999        1.0108338595       -0.7930751808
 C         -0.4076457802        1.1562903898        0.0700668194
 H         -0.3347803702        0.5347964498        0.9547657694
 N         -2.4820792497        0.0497963392       -0.5369270710
 S         -4.0829504398        0.5798156187       -0.6735763114
 O         -4.4453007995        0.5764823086       -2.0684967414
 O         -4.2483725404        1.8390445386        0.0179232186
 C         -4.9560194696       -0.7179404516        0.1788355384
 C         -5.2624251191       -1.8773953617       -0.5077320917
 C         -5.9261861589       -2.8943425419        0.1597235881
 C         -6.2699538893       -2.7360882121        1.4941369580
 C         -5.9559298798       -1.5663207920        2.1695220681
 C         -5.2909460099       -0.5456946218        1.5084006583
 H         -5.0355054803        0.3841413183        1.9912063084
 H         -6.2263407900       -1.4449051021        3.2060945281
 H         -6.7887343491       -3.5279974923        2.0109045979
 H         -6.1744799885       -3.8045315320       -0.3618757220
 H         -4.9843985988       -1.9515170616       -1.5460275217
 H         -2.3383414697       -0.4060806808        0.3545130090
 H         -2.4106001898        1.6979185393       -2.5895229310
 H         -0.6428466902        3.3686440799       -3.0474681405
 H          1.2604390994        3.6159011404       -1.5163640001
 H          1.3082910391        2.2336219403        1.8140194599
 C          2.6750530990        3.3248351908        0.5880071502
 C          2.2644299285        4.6941107906        1.0365804002
 C          3.3386155186        3.9542832909        1.7743467004
 H          4.3595361685        4.2910515812        1.6750634406
 H          3.1057610285        3.5498274008        2.7488763103
 H          2.5481889184        5.5422360507        0.4322755102
 H          1.2996754984        4.7951077003        1.5107305000
 H          3.2588019393        3.2372426510       -0.3200090297
