  62
        -98.93991467
 C          1.1579518461        1.1817842893        0.6277953786
 C          1.6623271021        0.6297030404       -0.5734465222
 C          2.4741482282       -0.5938089733       -0.4336670427
 C          2.5963234785       -1.1736137583        0.7718428677
 C          3.3388329841       -2.4342701418        1.1387796657
 C          4.7256304839       -2.6441461058        0.5151341863
 C          5.5334406335       -1.3591942622        0.2810010701
 H          5.0571741699       -0.5190387322        0.7892868637
 H          6.5272810262       -1.4808304244        0.7159739819
 C          5.7087254209       -1.0248011299       -1.2024401047
 H          6.5631922073       -0.3525193896       -1.3116749719
 H          5.9464145608       -1.9436804906       -1.7429439379
 C          4.5113126256       -0.3474456824       -1.8681299071
 H          4.7226142659       -0.2672835571       -2.9371159557
 H          4.4033561917        0.6711557995       -1.4857260617
 C          3.1622825587       -1.0620665518       -1.6835831480
 H          3.2897924595       -2.1414311607       -1.7018737412
 H          2.5113549771       -0.7701565351       -2.5116552722
 H          4.6255904131       -3.1768698099       -0.4294232681
 H          5.2772323009       -3.3026046182        1.1883611421
 H          3.4295893224       -2.4034258747        2.2271844465
 H          2.7056035985       -3.2918073539        0.8943574560
 O          1.9857868742       -0.6712396564        1.8831522911
 C          1.2806774745        0.5161626060        1.8468042495
 O          0.8068049582        0.8665728603        2.9484450648
 O          1.4594847822        1.1258714450       -1.7098644252
 C          0.3853892992        2.4922322921        0.6258268075
 C         -0.9682949709        2.2429556843        0.0080532661
 C         -1.3682805076        2.7445201266       -1.2223054951
 C         -2.6110712435        2.4175769308       -1.7402101831
 C         -3.4776000123        1.5937646360       -1.0450174295
 C         -3.0850717644        1.0905665013        0.1890043928
 C         -1.8416647545        1.4149963061        0.7044254567
 H         -1.5314163552        1.0151827575        1.6620209869
 N         -3.9545215818        0.2294767768        0.8994906138
 S         -4.2039994954       -1.2609855606        0.1755330507
 O         -4.9792231850       -1.0699473518       -1.0229858827
 O         -4.7951999978       -2.0982293124        1.1940908643
 C         -2.5716961124       -1.8485041614       -0.2382801107
 C         -2.0172679014       -1.5044528310       -1.4548157425
 C         -0.7301572803       -1.9254709440       -1.7453937336
 C         -0.0246567095       -2.6791105738       -0.8206906640
 C         -0.5909270264       -3.0063379680        0.4014647495
 C         -1.8752274906       -2.5825587283        0.7004739020
 H         -2.3540817898       -2.8230060625        1.6365167439
 H         -0.0367483358       -3.5850775233        1.1234039420
 H          0.9727261019       -3.0121781382       -1.0575607028
 H         -0.2782578481       -1.6583028218       -2.6868924383
 H         -2.5995594698       -0.9251886096       -2.1523972743
 H         -3.6558414369        0.0803855468        1.8539017055
 H         -4.4410041567        1.3170199335       -1.4416605345
 H         -2.9081524866        2.8101240353       -2.7008163687
 H         -0.7025408275        3.3790636636       -1.7829799536
 H          0.2257913619        2.7465467581        1.6832436409
 C          1.1704384270        3.6072084759       -0.0291776456
 C          0.7926756666        5.0311267867        0.2435812007
 C          2.0577359631        4.4681846446        0.8166164465
 H          3.0012470140        4.7958583608        0.4064806849
 H          2.0921804244        4.2627756388        1.8769762438
 H          0.8679939788        5.7487333255       -0.5590004984
 H         -0.0334712202        5.2081844637        0.9157168704
 H          1.5240232773        3.3545824095       -1.0207827230
