  62
        -98.94390442
 C          1.8834165040        0.5609455456        0.8277220204
 C          2.2421218805       -0.4843136201       -0.0570766374
 C          3.6810951617       -0.7612703146       -0.1610803872
 C          4.5552991502       -0.0564523198        0.5801861980
 C          6.0482931525       -0.2429182147        0.6060985497
 C          6.7899492630        0.4914994165       -0.5190677660
 C          6.6258730147       -0.1180102578       -1.9118276472
 H          7.3646642298        0.3583854574       -2.5593440041
 H          6.8649971194       -1.1811885153       -1.8726536231
 C          5.2330067001        0.0755975806       -2.5274352441
 H          5.3352513724        0.4041414992       -3.5641893681
 H          4.7039953809        0.8671614654       -1.9917632602
 C          4.3628567795       -1.1814275486       -2.5352441871
 H          3.3885643878       -0.9224350520       -2.9580477248
 H          4.8173514989       -1.9383635907       -3.1785271148
 C          4.1276322179       -1.7960781274       -1.1491545109
 H          3.3299357775       -2.5385174683       -1.2340405923
 H          5.0325277062       -2.2929730545       -0.7995765351
 H          6.4578858444        1.5320310185       -0.5352213732
 H          7.8527267527        0.4854816664       -0.2664674814
 H          6.2852693812       -1.3064410612        0.5659769342
 H          6.3938755231        0.1550065513        1.5626349703
 O          4.1655963605        0.9249823320        1.4367770233
 C          2.8297380665        1.2687635932        1.5684756823
 O          2.6145640854        2.1982349815        2.3726605925
 O          1.4092199891       -1.1559417801       -0.7203193789
 C          0.4251114793        0.9476621242        0.9925682657
 C         -0.3959357003       -0.2508688340        1.4006588191
 C          0.0723365165       -1.0732972495        2.4222838710
 C         -0.6481397175       -2.1809951416        2.8230911210
 C         -1.8540719420       -2.4894047905        2.2187936605
 C         -2.3409332621       -1.6651423526        1.2114265152
 C         -1.6176448585       -0.5474112184        0.8160342123
 H         -2.0058803539        0.0706104466        0.0242057039
 N         -3.5863310930       -1.9271707594        0.6304126268
 S         -4.0176338976       -1.4075801628       -0.8934646179
 O         -5.2166954090       -2.1633824023       -1.1916800768
 O         -2.9446762921       -1.5289839280       -1.8514927049
 C         -4.4602807432        0.3039084804       -0.6741198730
 C         -5.0738124786        0.7018651940        0.4971333129
 C         -5.4514671962        2.0277745387        0.6374241744
 C         -5.2210154540        2.9272498055       -0.3921476988
 C         -4.6104695858        2.5108404705       -1.5648635244
 C         -4.2247394378        1.1870961420       -1.7090139293
 H         -3.7346802433        0.8233632126       -2.5985705061
 H         -4.4324297652        3.2109053888       -2.3658554601
 H         -5.5164961992        3.9584657255       -0.2807339025
 H         -5.9250877364        2.3554385351        1.5487951572
 H         -5.2389149756       -0.0212203050        1.2780617051
 H         -4.0116038328       -2.8073949862        0.8782969629
 H         -2.4137493111       -3.3604391480        2.5235735427
 H         -0.2659827764       -2.8150001388        3.6091433258
 H          1.0188614400       -0.8371214701        2.8898572307
 H          0.3968591521        1.6770266889        1.8158285629
 C         -0.0780664594        1.6207425560       -0.2679255929
 C         -1.1332947683        2.6814838447       -0.1868728699
 C          0.2812034899        3.0547312184       -0.5114186627
 H          0.5177419641        3.3632503222       -1.5187231736
 H          0.8692950055        3.5509494705        0.2471113796
 H         -1.8720205248        2.7343578525       -0.9721513589
 H         -1.5123658321        2.9348558246        0.7914829770
 H         -0.0855363274        0.9525576680       -1.1226233555
