  62
        -98.94419716
 C          1.9795966503        1.3070260543        0.0321095361
 C          2.3026957741        0.3421293855       -0.9525212221
 C          3.7112512908       -0.0796546989       -0.9982704049
 C          4.5948068805        0.4618000650       -0.1408733395
 C          6.0431549848        0.0814955212       -0.0444550213
 C          6.2542674864       -1.0444202993        0.9774873149
 C          5.3018501583       -2.2270639618        0.7997944903
 H          5.5637317507       -2.9716216313        1.5547379327
 H          4.2813663574       -1.9000988916        1.0134073784
 C          5.3449553593       -2.8738363943       -0.5917499658
 H          6.2638223681       -2.5879022249       -1.1050695041
 H          5.3647599730       -3.9592015607       -0.4724654031
 C          4.1445293769       -2.5460118180       -1.4817464990
 H          3.2183432152       -2.7441420107       -0.9356833518
 H          4.1664064440       -3.2196348572       -2.3427090755
 C          4.0879889629       -1.1119965725       -2.0233909235
 H          3.3052943756       -1.0767125934       -2.7868138923
 H          5.0395216276       -0.8589839621       -2.4952529978
 H          6.1071410503       -0.6349450200        1.9795433380
 H          7.2862600469       -1.3915304817        0.9005856580
 H          6.3977645584       -0.2318652951       -1.0243765488
 H          6.6088521321        0.9589634217        0.2732752878
 O          4.2506289761        1.3958296969        0.7815356291
 C          2.9410098508        1.8243311935        0.9049894378
 O          2.7593390332        2.6621267304        1.8105577888
 O          1.4722438531       -0.1469486698       -1.7630161437
 C          0.5558619297        1.8077755615        0.2228083127
 C         -0.2694883240        0.6898770817        0.8110973769
 C         -0.2923638725        0.5063416430        2.1903924303
 C         -1.0179897246       -0.5266537055        2.7553946779
 C         -1.7301956443       -1.4039469155        1.9556296907
 C         -1.7038866567       -1.2341712714        0.5784016025
 C         -0.9889165067       -0.1870064316        0.0134519571
 H         -0.9654924408       -0.0762032433       -1.0590195633
 N         -2.4332358486       -2.1240920057       -0.2422005094
 S         -4.0988338989       -2.0354731614       -0.0850775490
 O         -4.4736676870       -2.5355805844        1.2129507127
 O         -4.6423362036       -2.7379490701       -1.2250017315
 C         -4.4586586144       -0.2924763921       -0.1983525991
 C         -4.6620378214        0.2622994261       -1.4460559288
 C         -4.8598651849        1.6296850582       -1.5474885860
 C         -4.8364975390        2.4164546558       -0.4060910066
 C         -4.6267650719        1.8441954533        0.8389362081
 C         -4.4349808253        0.4762976281        0.9479581214
 H         -4.2737036052       -0.0060558108        1.8979504135
 H         -4.6085822643        2.4582029928        1.7250126473
 H         -4.9822623806        3.4821025666       -0.4875043073
 H         -5.0270386254        2.0773102358       -2.5142095166
 H         -4.6751488568       -0.3857099222       -2.3079215009
 H         -2.1820402236       -2.0454467392       -1.2180697634
 H         -2.3105545453       -2.2095671365        2.3758024156
 H         -1.0279241180       -0.6526321397        3.8275702625
 H          0.2757499699        1.1819073647        2.8148520341
 H          0.6203645587        2.6082755939        0.9712370271
 C         -0.0332399467        2.3785807483       -1.0510943895
 C         -1.3185993346        3.1450890359       -0.9748141800
 C         -0.0336691834        3.8616361888       -1.2596363677
 H          0.1372254468        4.2405204682       -2.2561469415
 H          0.3938312973        4.4764435521       -0.4810780334
 H         -2.0351308345        3.0318635301       -1.7735745964
 H         -1.7653420275        3.2681888876        0.0000613580
 H          0.1362038643        1.7584356972       -1.9218175766
