  62
        -98.93821439
 C         -1.7692175343       -0.2021409485       -0.8809017642
 C         -2.9301652699        0.6025714132       -0.9984208556
 C         -4.2067707389       -0.0695781016       -0.6976442493
 C         -4.2112528655       -1.3655324988       -0.3405380695
 C         -5.4318846513       -2.1470339053        0.0489698177
 C         -5.6777940160       -2.0757201617        1.5625625060
 C         -5.6311938210       -0.6568438831        2.1296530027
 H         -5.8482479278       -0.7261867339        3.1978222338
 H         -4.6148268463       -0.2678819647        2.0334053664
 C         -6.6128961807        0.3225186382        1.4711244915
 H         -7.1082235640        0.9012696512        2.2536915364
 H         -7.3874263576       -0.2308059944        0.9387666949
 C         -5.9630382081        1.3272939996        0.5180266074
 H         -5.1259367560        1.8193524219        1.0197505018
 H         -6.7011472875        2.0986466980        0.2821167273
 C         -5.4584161223        0.7548125652       -0.8125797333
 H         -6.2546673408        0.1820513423       -1.2922916077
 H         -5.2027438921        1.5985089626       -1.4604527885
 H         -6.6503658481       -2.5230670432        1.7757728824
 H         -4.9119998705       -2.6703434537        2.0659654833
 H         -6.2938764005       -1.7567024682       -0.4885849076
 H         -5.2782648611       -3.1890717518       -0.2364970078
 O         -3.0784772026       -2.1079414314       -0.2467319579
 C         -1.8403837689       -1.5467112696       -0.5047107004
 O         -0.8848718653       -2.3388045847       -0.3770477082
 O         -2.9271864635        1.8148865906       -1.3305431530
 C         -0.3654875708        0.3133324834       -1.1486509451
 C          0.2497185645        0.9373203244        0.0772534207
 C         -0.4557691144        1.8242779502        0.8835126400
 C          0.1494766484        2.3986401945        1.9865541863
 C          1.4713982478        2.1233878782        2.2900522803
 C          2.1859212990        1.2408337223        1.4891678853
 C          1.5640313432        0.6391890904        0.4043374987
 H          2.1155271548       -0.0664101394       -0.1972637135
 N          3.5274608447        0.9388195809        1.7590021149
 S          4.6068992359        0.7883827210        0.4855270534
 O          5.8993318812        1.0759441298        1.0689321140
 O          4.2144985971        1.6083164586       -0.6358137320
 C          4.5395240495       -0.9357763999        0.0506397523
 C          4.2553215010       -1.3068468084       -1.2484152983
 C          4.2168277864       -2.6550659360       -1.5672440271
 C          4.4640428124       -3.6029922945       -0.5865516866
 C          4.7529274452       -3.2136755655        0.7127725812
 C          4.7923703709       -1.8676216315        1.0377026671
 H          5.0166971907       -1.5258932007        2.0343514672
 H          4.9443430346       -3.9550467177        1.4717603320
 H          4.4300913401       -4.6514256790       -0.8375223636
 H          3.9904394227       -2.9592658669       -2.5766704547
 H          4.0639882865       -0.5380345691       -1.9810854734
 H          3.9289066287        1.4391416372        2.5385200549
 H          1.9471521625        2.5878419758        3.1405358686
 H         -0.4092181854        3.0825466366        2.6078977966
 H         -1.4759671902        2.0691146035        0.6302512007
 H          0.2279008009       -0.5839328756       -1.3878110267
 C         -0.2838203783        1.2344077362       -2.3593686307
 C         -0.0936323853        2.7149199302       -2.2653208452
 C          1.0258045517        1.8501812859       -2.7573537731
 H          1.2800431027        1.8828381586       -3.8064512519
 H          1.8762560163        1.7132636267       -2.1041386304
 H         -0.6276205910        3.3342273004       -2.9697490468
 H         -0.0025523186        3.1559427251       -1.2852131457
 H         -0.9182951068        0.8860845619       -3.1686824698
