  62
        -98.94652285
 C         -1.4974729400       -1.4192546572       -0.4278819631
 C         -2.7775704457       -1.3653134958        0.1776500293
 C         -3.5846162135       -0.1763536982       -0.1236346873
 C         -3.0746526741        0.7779607089       -0.9240176788
 C         -3.7673947655        2.0651613888       -1.2662986366
 C         -3.4220224848        3.1788531273       -0.2672101234
 C         -3.5393582717        2.7563101108        1.1968477442
 H         -2.7991993080        1.9804105458        1.4070550990
 H         -3.2805690954        3.6237038980        1.8082995041
 C         -4.9306994313        2.2471964195        1.5982337240
 H         -5.2084595500        2.6993387984        2.5527586163
 H         -5.6690372973        2.5672568425        0.8619681350
 C         -5.0227855200        0.7312283739        1.7794185104
 H         -5.9762660732        0.5037112777        2.2636758601
 H         -4.2280046623        0.3922681892        2.4488091590
 C         -4.9540094726       -0.0973605911        0.4904230072
 H         -5.2293646093       -1.1257006251        0.7424301660
 H         -5.6793283486        0.2843849703       -0.2310450658
 H         -4.0827354302        4.0271995491       -0.4550692362
 H         -2.3955039618        3.5038642943       -0.4464666206
 H         -4.8427954969        1.8971430902       -1.2765067459
 H         -3.4498004888        2.3712133959       -2.2643538261
 O         -1.8446948329        0.6907484067       -1.4884278441
 C         -1.0218358349       -0.4022116527       -1.2572921018
 O          0.0730053820       -0.3465332799       -1.8463339994
 O         -3.2243620212       -2.2706260192        0.9318447063
 C         -0.6065294071       -2.6105150190       -0.1130046112
 C          0.5490590156       -2.0935174762        0.7053706780
 C          0.3662505787       -1.8585939944        2.0654436799
 C          1.3693513525       -1.2881192517        2.8265156981
 C          2.5711253268       -0.9233621259        2.2436935035
 C          2.7572990806       -1.1436878483        0.8858164547
 C          1.7605608930       -1.7443709756        0.1288737177
 H          1.9197941287       -1.9018161933       -0.9257506131
 N          3.9650533160       -0.7391246677        0.2756654711
 S          4.2957459454        0.9037142813        0.3064045102
 O          5.3987006750        1.0893502047       -0.6092766004
 O          4.5307438102        1.3039968699        1.6712358232
 C          2.8341932585        1.7077659732       -0.3224705454
 C          2.7639767739        1.9945790194       -1.6702390717
 C          1.6136575225        2.5781530013       -2.1724807713
 C          0.5535603079        2.8520095213       -1.3241112100
 C          0.6363058863        2.5512257561        0.0256922521
 C          1.7868500013        1.9732693021        0.5359853135
 H          1.8863268031        1.7282492548        1.5811715084
 H         -0.1954820443        2.7543055139        0.6827859221
 H         -0.3475771977        3.2909951967       -1.7228655598
 H          1.5399807924        2.8050308316       -3.2239390897
 H          3.6109511486        1.7635149517       -2.2965396314
 H          4.0436903516       -1.0641451778       -0.6784240854
 H          3.3548937523       -0.4508390788        2.8132566427
 H          1.2143868594       -1.1184340202        3.8814526985
 H         -0.5820378723       -2.1174746789        2.5158442833
 H         -1.2130674009       -3.2705990574        0.5211224843
 C         -0.1963630483       -3.3700001492       -1.3562412656
 C          0.4005619454       -4.7375367123       -1.2149694758
 C         -0.9822790761       -4.5766714391       -1.7692396326
 H         -1.1401148592       -4.7521859025       -2.8228606184
 H         -1.8187824676       -4.8649307816       -1.1496906611
 H          1.1937971748       -5.0277481366       -1.8869463974
 H          0.5039135573       -5.1343530652       -0.2163316764
 H          0.1774254886       -2.7320390512       -2.1476959438
