  62
        -98.93932025
 C         -2.5456258386       -1.1701399778       -0.2603292575
 C         -2.1358629596       -0.0228447759       -0.9838998423
 C         -3.0835564922        1.1038756096       -0.9873742639
 C         -4.2569677252        0.9871265849       -0.3407614323
 C         -5.2780981763        2.0787388987       -0.2072566394
 C         -5.0374756416        2.9069591102        1.0628346537
 C         -3.5902930630        3.3691462992        1.2353784280
 H         -3.5467165169        3.9676534470        2.1478938009
 H         -2.9505957407        2.4972339617        1.3930229356
 C         -3.0417173641        4.1900606077        0.0600058800
 H         -3.8667633306        4.5672535183       -0.5454361009
 H         -2.5066815126        5.0555834192        0.4562342921
 C         -2.0604057619        3.4358663057       -0.8397613392
 H         -1.2727017671        2.9797535963       -0.2331033567
 H         -1.5784176656        4.1611341898       -1.5012525287
 C         -2.6733009551        2.3455369656       -1.7277006043
 H         -3.5149311892        2.7566488729       -2.2892774723
 H         -1.9043221914        2.0297210870       -2.4392618330
 H         -5.6974112728        3.7758751739        1.0385264268
 H         -5.3068298419        2.2981701647        1.9288299708
 H         -5.2345632007        2.7191545965       -1.0858344369
 H         -6.2665500269        1.6202378059       -0.1498747216
 O         -4.6264320273       -0.1396007518        0.3197569163
 C         -3.7781502258       -1.2302065004        0.3947687405
 O         -4.2316393510       -2.1843483642        1.0585458688
 H          0.9378713173       -1.5086770270       -0.6021295530
 C          0.7084889112       -1.6021794566        0.4459763300
 C         -0.5422007529       -2.0357892099        0.8591776818
 C         -0.8110211783       -2.1091253837        2.2242540738
 C          0.1497794517       -1.7587887190        3.1527311566
 C          1.3947123720       -1.3199674183        2.7374047727
 C          1.6728245375       -1.2400070898        1.3779412932
 N          2.9450382622       -0.8269664679        0.9393044753
 S          3.0354777452        0.2549642560       -0.3594142122
 O          2.1773684089        1.3919584496       -0.1145716530
 O          2.8443435190       -0.4694739561       -1.5886078782
 C          4.7473946461        0.7422226437       -0.2242171922
 C          5.0713432430        1.9477035995        0.3683787188
 C          6.4069493551        2.2985983239        0.4898581784
 C          7.3909665773        1.4409513505        0.0220749085
 C          7.0506692695        0.2340952054       -0.5710939376
 C          5.7173212183       -0.1216486529       -0.6965864944
 H          5.4039870341       -1.0435822619       -1.1577810075
 H          7.8183451993       -0.4288692985       -0.9362196547
 H          8.4294193408        1.7161034145        0.1176441610
 H          6.6738228731        3.2376829131        0.9473213938
 H          4.2717175199        2.5856616982        0.7094826084
 H          3.5128018548       -0.4858385811        1.7048125887
 H          2.1466995106       -1.0418613202        3.4606532731
 H         -0.0724645875       -1.8218591256        4.2073772067
 H         -1.7919177997       -2.4340327448        2.5431959688
 C         -1.6440705470       -2.3872133078       -0.1122460241
 H         -2.2671829539       -3.1611207707        0.3573711361
 C         -1.1442460143       -2.9149375371       -1.4394178330
 C         -0.5943727625       -4.3070999970       -1.5051480708
 C         -1.9183183615       -3.9935173669       -2.1332041179
 H         -1.9864170113       -3.9654666869       -3.2103882724
 H         -2.8127465310       -4.3571025797       -1.6481620248
 H          0.2507315646       -4.4954031401       -2.1494401652
 H         -0.5909198421       -4.8842072231       -0.5926277027
 H         -0.6830879743       -2.1587821921       -2.0620284480
 O         -1.0452714075        0.0699951264       -1.6060952365
