  62
        -98.93536314
 C          2.3573757512        1.3311048854        0.1103755911
 C          2.8891467890        0.5235429814        1.1470861201
 C          3.6151223703       -0.6928881803        0.7460359313
 C          3.7221168202       -0.9815892431       -0.5620572711
 C          4.3575431206       -2.1919609179       -1.1885139204
 C          3.3107737786       -3.2950591612       -1.4217543197
 C          3.0990376011       -4.2417490319       -0.2412383312
 H          2.2562282075       -4.8893382775       -0.4939770765
 H          3.9804773949       -4.8764844878       -0.1271296089
 C          2.8075587787       -3.5598131702        1.0979323617
 H          2.0964242370       -2.7447805822        0.9461342360
 H          2.3212662565       -4.2915343102        1.7461519699
 C          4.0711690269       -3.0368415592        1.7974029626
 H          4.0910256553       -3.4018646794        2.8263048619
 H          4.9492150119       -3.4533794663        1.3042559451
 C          4.1946339871       -1.5084994381        1.8696121535
 H          5.2507812466       -1.2415032271        1.9827973574
 H          3.6829492376       -1.1445404455        2.7660212907
 H          2.3625638339       -2.8133993211       -1.6776941648
 H          3.6160863757       -3.8919297317       -2.2838448288
 H          5.1811400354       -2.5541983773       -0.5804441241
 H          4.7478940641       -1.8721584817       -2.1569731400
 O          3.1894209764       -0.1861386253       -1.5285903099
 C          2.4896031656        0.9727868750       -1.2306291162
 O          2.0597710098        1.5665773674       -2.2392086696
 O          2.7634315933        0.8144370442        2.3671758484
 C          1.6028052912        2.5785329235        0.5406599821
 C          0.1339148505        2.2657338370        0.6652851628
 C         -0.5569251050        2.4816918614        1.8512240679
 C         -1.8940581880        2.1391435378        1.9610598266
 C         -2.5654842072        1.5669802863        0.8948460155
 C         -1.8815767132        1.3455036145       -0.2930202798
 C         -0.5480921923        1.7010327514       -0.4047164619
 H         -0.0234975999        1.5204871093       -1.3321182718
 N         -2.5513655543        0.7154722460       -1.3739899370
 S         -2.6665070595       -0.9560155361       -1.1630408180
 O         -1.5065185612       -1.4793676082       -0.4739364286
 O         -2.9309478033       -1.5007789460       -2.4768609600
 C         -4.1142582320       -1.1275890610       -0.1436718366
 C         -5.3431240065       -0.8362251129       -0.7035305103
 C         -6.4777493685       -0.9371744919        0.0854537844
 C         -6.3640449101       -1.3248874294        1.4125250294
 C         -5.1231033910       -1.6167252442        1.9581651189
 C         -3.9837796118       -1.5175178607        1.1745246073
 H         -2.9972200385       -1.7283829681        1.5555026196
 H         -5.0364558164       -1.9176790071        2.9898090617
 H         -7.2480761857       -1.4005178523        2.0257754421
 H         -7.4445318145       -0.7121745995       -0.3350546071
 H         -5.3828787264       -0.5442151571       -1.7396757807
 H         -2.0833345285        0.8828281099       -2.2557037187
 H         -3.6050502240        1.2935426440        0.9732473829
 H         -2.4169523006        2.3127994141        2.8888581913
 H         -0.0321928678        2.9024625784        2.6964033960
 H          1.9816830280        2.7973854985        1.5512848838
 C          1.8951567737        3.7924440629       -0.3302151775
 C          0.8720976167        4.4636165223       -1.1927123517
 C          1.3481256010        5.1344919629        0.0583829098
 H          1.9879677690        5.9995447454       -0.0254380529
 H          0.6667262489        5.1653831169        0.8952475395
 H          1.1999242317        4.8448309151       -2.1478930980
 H         -0.1299996682        4.0646722437       -1.2071423000
 H          2.9076655766        3.7742822653       -0.7203312428
