  62
        -98.94027525
 C         -1.9970240954       -0.0602328473       -0.4697112507
 C         -2.8183910292        0.5435897695        0.5146378822
 C         -4.1400415414       -0.0742232995        0.7036509600
 C         -4.4797615719       -1.1730901219        0.0078867673
 C         -5.7756476645       -1.9295275528        0.1186455157
 C         -6.9152795582       -1.3419432649       -0.7250247645
 C         -7.5051686611       -0.0324778029       -0.1996331055
 H         -8.4280596678        0.1481739542       -0.7544267117
 H         -7.7750811651       -0.1525746563        0.8500432249
 C         -6.5859413959        1.1862768278       -0.3608503588
 H         -7.1605993214        2.0248822891       -0.7606199390
 H         -5.8043229093        0.9580240668       -1.0892272719
 C         -5.9309524266        1.6624001917        0.9358438003
 H         -5.2750318138        2.5040668320        0.6995047646
 H         -6.6998321761        2.0184575699        1.6250723022
 C         -5.0924602814        0.5938360063        1.6492501006
 H         -4.5003838913        1.0844863501        2.4255600401
 H         -5.7431790402       -0.1433779951        2.1189079809
 H         -7.7132070311       -2.0873962629       -0.7586680389
 H         -6.5546230001       -1.1959463748       -1.7459426971
 H         -5.5739640965       -2.9435608553       -0.2334732738
 H         -6.0832679612       -1.9800212885        1.1635684782
 O         -3.6426082072       -1.7525266679       -0.8941364469
 C         -2.4022591710       -1.2024507900       -1.1658433153
 O         -1.7536515261       -1.8125386894       -2.0409386524
 H          1.5840003937       -0.9257080151       -1.5697064685
 C          1.5072143699       -0.8360476844       -0.4943857299
 C          0.4267214870       -0.1653395684        0.0586806733
 C          0.3343804185       -0.0751705620        1.4443443954
 C          1.3002500153       -0.6487350325        2.2507801629
 C          2.3771704750       -1.3182550731        1.6952695327
 C          2.4784415638       -1.4119360183        0.3143114816
 N          3.5941014515       -2.0646286414       -0.2522738064
 S          5.0792901881       -1.3644982546        0.0982452307
 O          5.9858211240       -1.8450284913       -0.9193113864
 O          5.4337617147       -1.6628776584        1.4619083083
 C          4.7796198231        0.3825413047       -0.0951466615
 C          4.7912331155        0.9113893475       -1.3707788253
 C          4.4586453107        2.2446812326       -1.5468616245
 C          4.1073583782        3.0185150080       -0.4510827343
 C          4.1017973506        2.4727929970        0.8229253841
 C          4.4405339051        1.1417070814        1.0067413340
 H          4.4510033149        0.6816119575        1.9809406312
 H          3.8279873209        3.0776260059        1.6722872382
 H          3.8322874770        4.0515080320       -0.5915682302
 H          4.4648290378        2.6735128142       -2.5362428684
 H          5.0707347534        0.2764447877       -2.1965666788
 H          3.5087459452       -2.2009814772       -1.2498310244
 H          3.1444702063       -1.7630593411        2.3082991420
 H          1.2150557173       -0.5736952328        3.3243205856
 H         -0.5002421566        0.4545099704        1.8777958539
 C         -0.6148878384        0.4579349484       -0.8333751146
 H         -0.4351858886        0.0915014270       -1.8563046179
 C         -0.5323835801        1.9789023418       -0.8736118031
 C          0.3549728557        2.7861126163        0.0217954969
 C          0.6979798911        2.6351126619       -1.4272969075
 H          0.5818185361        3.4839685671       -2.0835620448
 H          1.5304121218        1.9931268892       -1.6750995061
 H         -0.0243328109        3.7337089720        0.3719210879
 H          0.9660140224        2.2670805969        0.7431512034
 H         -1.4827081115        2.4300226078       -1.1375330140
 O         -2.4878964931        1.5374264713        1.2088784465
