  62
        -98.94197556
 C         -1.2210932259       -0.8988647483        0.3852419945
 C         -2.0329719948       -0.6868191829       -0.7522042953
 C         -2.9940910160        0.4276886207       -0.6682735875
 C         -3.0097506024        1.1989352570        0.4325261312
 C         -3.9362449751        2.3444287280        0.7334944971
 C         -5.1562187165        1.8605903574        1.5359265519
 C         -6.3241567404        1.3548386003        0.6899293329
 H         -7.0581060831        0.9241047235        1.3748072840
 H         -6.7988270818        2.2028245370        0.1918807094
 C         -5.9630854964        0.3071208973       -0.3663856918
 H         -6.8757768782       -0.2312338378       -0.6288561320
 H         -5.2688323014       -0.4200421047        0.0583738188
 C         -5.3635429867        0.9173649920       -1.6421271896
 H         -5.5262627722        1.9950658836       -1.6316019488
 H         -5.8983394794        0.5323416695       -2.5127940357
 C         -3.8730979394        0.6241255286       -1.8732093467
 H         -3.7677137014       -0.3032088978       -2.4453135066
 H         -3.4424441224        1.4202445543       -2.4903977648
 H         -4.8196908079        1.0693411645        2.2107579456
 H         -5.5178561739        2.6849636286        2.1538715585
 H         -3.3697174367        3.0488243603        1.3466794441
 H         -4.2385835007        2.8452444521       -0.1815554004
 O         -2.1745741790        0.9898005250        1.4871483165
 C         -1.2586578362       -0.0450520574        1.4864498907
 O         -0.5413655204       -0.1018228961        2.5072073621
 H          0.8277963603        0.3220092151       -0.3456782671
 C          1.2806388171       -0.4902235760       -0.8926070865
 C          0.8439109302       -1.7892685359       -0.6748762138
 C          1.4190429297       -2.8132522635       -1.4171476535
 C          2.3955689365       -2.5303397909       -2.3568447006
 C          2.8368183820       -1.2351442184       -2.5597926115
 C          2.2703257761       -0.2045509929       -1.8183165895
 N          2.6820299669        1.1262592857       -1.9841480320
 S          2.7278975662        2.1512396174       -0.6639800539
 O          1.3947564510        2.5459752360       -0.2818353270
 O          3.6052995498        3.2240359893       -1.0829979951
 C          3.5194659275        1.2004690553        0.6216127528
 C          4.8692500572        0.9428696537        0.4694822961
 C          5.5183719090        0.1674295066        1.4150142879
 C          4.8085054417       -0.3426409820        2.4920314172
 C          3.4573211806       -0.0708395617        2.6336735170
 C          2.8019563639        0.7085763404        1.6921900449
 H          1.7492793180        0.9261648786        1.7879124433
 H          2.8955066659       -0.4611396002        3.4675266506
 H          5.3101257271       -0.9522455703        3.2269082194
 H          6.5710775242       -0.0393682210        1.3097071326
 H          5.3873315694        1.3677105262       -0.3749356749
 H          3.4758542295        1.2572906430       -2.5933149906
 H          3.6020455606       -1.0191729664       -3.2892066326
 H          2.8268837545       -3.3332676832       -2.9349333992
 H          1.0974789361       -3.8305740891       -1.2657470143
 C         -0.1987149014       -2.0195389733        0.3938402952
 H          0.3102427948       -1.9548339938        1.3679155549
 C         -0.8808283718       -3.3681320724        0.2900182596
 C         -0.2882480651       -4.5697464302        0.9610840900
 C         -1.5328957498       -3.9425155930        1.5107887012
 H         -2.4710974648       -4.4645660632        1.3975033094
 H         -1.4593985615       -3.3723611169        2.4258951970
 H          0.6303389421       -4.4340892928        1.5116634471
 H         -0.3743609966       -5.5281592731        0.4716202295
 H         -1.3862978312       -3.5052600096       -0.6586501656
 O         -1.9672847481       -1.3961321025       -1.7909248080
