  62
        -98.94739471
 C          2.5652222852       -0.1251172381        0.3975151820
 C          2.1715209577       -0.6973601854       -0.8363332564
 C          1.7375135624       -2.1005272625       -0.7819947773
 C          1.7214905560       -2.7401381328        0.4013332719
 C          1.2794462326       -4.1601018981        0.6072151087
 C         -0.2126662782       -4.2447535074        0.9531450894
 C         -1.1184523672       -3.4681139317       -0.0029301562
 H         -0.9454550299       -2.3959018618        0.1222145343
 H         -2.1501176010       -3.6559451007        0.3051338611
 C         -0.9506011846       -3.8379419223       -1.4833005693
 H         -1.9418049046       -3.9285634197       -1.9322726679
 H         -0.4624412042       -4.8099428482       -1.5711033267
 C         -0.1833734148       -2.8016009939       -2.3071964900
 H         -0.5928391123       -1.8083345035       -2.1080127741
 H         -0.3425175868       -3.0213035052       -3.3667160702
 C          1.3321022185       -2.7520538021       -2.0738694991
 H          1.7701380683       -2.1380971997       -2.8664289381
 H          1.7512598946       -3.7586756037       -2.1459800045
 H         -0.3594514614       -3.8440540172        1.9590494635
 H         -0.5041519551       -5.2971728242        0.9581364680
 H          1.8574123169       -4.5797985028        1.4328193995
 H          1.4863111404       -4.7312086126       -0.2959511535
 O          2.0940271384       -2.1524613876        1.5685650076
 C          2.5055842097       -0.8308211722        1.5974471148
 O          2.8008562639       -0.4075763998        2.7356522908
 O          2.1999704490       -0.0739124440       -1.9301642014
 C          3.0000454346        1.3283793671        0.4542151315
 C          1.8827163212        2.2143612425       -0.0430909480
 C          2.0859822851        3.3236365061       -0.8541554250
 C          1.0099197627        4.0800610522       -1.2861605704
 C         -0.2839678859        3.7408956963       -0.9358063657
 C         -0.4958031162        2.6417505274       -0.1113494267
 C          0.5852367871        1.9061989447        0.3435301406
 H          0.4084349076        1.0552427621        0.9862467579
 N         -1.7930525117        2.2600908780        0.2828616794
 S         -2.0956051250        0.5939941756        0.3123831108
 O         -1.6533277420        0.0601926074        1.5774140890
 O         -1.5585219793       -0.0237004147       -0.8765228673
 C         -3.8779445879        0.5877837135        0.2594680968
 C         -4.5700399886        0.9763570975        1.3912167647
 C         -5.9548480410        1.0046434881        1.3523154940
 C         -6.6207571690        0.6454030693        0.1894732323
 C         -5.9126540698        0.2546709389       -0.9367673074
 C         -4.5268536726        0.2262734719       -0.9053796338
 H         -3.9327502033       -0.0744737529       -1.7534061103
 H         -6.4324574876       -0.0274753479       -1.8380564663
 H         -7.6986865552        0.6678635741        0.1621319486
 H         -6.5086993271        1.3053151378        2.2269055645
 H         -4.0090910989        1.2366822792        2.2736660011
 H         -2.5104308112        2.7434863067       -0.2420519883
 H         -1.1228710279        4.3175378333       -1.2951503513
 H          1.1810568442        4.9365161310       -1.9206047215
 H          3.0856792308        3.5892231436       -1.1569603691
 H          3.1650579297        1.5540650620        1.5189262144
 C          4.3024601947        1.5232385823       -0.2945049597
 C          5.2796306616        2.5710220988        0.1446053773
 C          5.5832440337        1.1213881554        0.3709803540
 H          6.3499874646        0.6522575457       -0.2268680899
 H          5.5150848562        0.7327603858        1.3770077674
 H          5.8439769941        3.0981027164       -0.6098471608
 H          5.0172607037        3.1714230139        1.0026041908
 H          4.2039347897        1.3218436010       -1.3549744494
