  62
        -98.93476857
 C          1.4934927726        1.4055313148        0.5481445098
 C          1.7958587896        0.1928618138        1.2199562171
 C          2.9850541981       -0.5278482029        0.7560077173
 C          3.7079051927       -0.0316138707       -0.2638872604
 C          4.9533740406       -0.6429256010       -0.8464622503
 C          4.6820201760       -1.7395434603       -1.8857452292
 C          4.1630444382       -3.0618532152       -1.3190979744
 H          4.2280016815       -3.7996208337       -2.1212858450
 H          4.8221352964       -3.3950661481       -0.5168149082
 C          2.7148519458       -3.0103917380       -0.8118540759
 H          2.2155462079       -2.1287977407       -1.2206383763
 H          2.1699170685       -3.8831924168       -1.1773599468
 C          2.5751401920       -2.9949452482        0.7101513107
 H          1.5140340442       -2.9041266259        0.9521346360
 H          2.9421397446       -3.9372808138        1.1225395920
 C          3.3114137576       -1.8407535340        1.4009218724
 H          4.3873279626       -2.0138819038        1.3877544025
 H          2.9767451852       -1.7931582808        2.4400356363
 H          3.9718986520       -1.3545356931       -2.6212454656
 H          5.6234786113       -1.9357372616       -2.4042303312
 H          5.5745030881       -1.0442301897       -0.0451331781
 H          5.4979327627        0.1675830614       -1.3355905683
 O          3.3828821696        1.1287784321       -0.8889623590
 C          2.2683549389        1.8726851296       -0.5150790315
 O          2.1037666206        2.8950615595       -1.2022406658
 O          1.1044920591       -0.2643203030        2.1696607432
 C          0.2585990281        2.1639924815        1.0190503474
 C         -0.7394739342        2.2640383093       -0.1071802120
 C         -0.8201564367        3.2988546121       -1.0318678380
 C         -1.7591630839        3.2609485722       -2.0485225860
 C         -2.6403185637        2.2032230718       -2.1676423990
 C         -2.5597028811        1.1507473802       -1.2623717811
 C         -1.6120750093        1.1880703333       -0.2524341646
 H         -1.5535275652        0.3632520228        0.4428556097
 N         -3.4126815401        0.0452114179       -1.3765081628
 S         -3.9535840853       -0.7876664945       -0.0320408866
 O         -5.1657771648       -1.4377953483       -0.4843965443
 O         -4.0894429044        0.0761443928        1.1166620916
 C         -2.7188958069       -2.0364628308        0.2532372491
 C         -2.1546167639       -2.1785154806        1.5045558651
 C         -1.2410775470       -3.1987828969        1.7164422468
 C         -0.9106830853       -4.0552243779        0.6775918053
 C         -1.4806681019       -3.8944975368       -0.5765788452
 C         -2.3958718680       -2.8778861194       -0.7932798034
 H         -2.8683728502       -2.7278670820       -1.7497882854
 H         -1.2158205792       -4.5597671630       -1.3826118958
 H         -0.2045413480       -4.8529528187        0.8473809619
 H         -0.7875267909       -3.3133308679        2.6880245581
 H         -2.4329741827       -1.4899819772        2.2870097087
 H         -4.1255198396        0.1254036509       -2.0863649873
 H         -3.3764701295        2.1834061723       -2.9569151522
 H         -1.8051756538        4.0743681876       -2.7570658310
 H         -0.1318908682        4.1232363868       -0.9889930263
 H         -0.1924513853        1.4850409844        1.7604309124
 C          0.6274266413        3.4110874270        1.8129376986
 C          1.2156988766        4.6728955624        1.2593322339
 C         -0.1784110401        4.6749751998        1.8102948438
 H         -0.3529308136        5.1694779763        2.7544489212
 H         -1.0045369027        4.7445921602        1.1202980451
 H          1.9926564195        5.1511600230        1.8394406544
 H          1.3779256402        4.7440822956        0.1970680644
 H          1.0299230226        3.1129711859        2.7786129881
