  62
        -98.93562447
 C         -2.1649265714       -0.8106626296       -0.3697095590
 C         -3.3819557662       -0.8944827174        0.3495101725
 C         -4.1042159916        0.3665501877        0.5894439899
 C         -3.5735927736        1.5225946172        0.1490390566
 C         -4.0444870316        2.9554618867        0.2883502052
 C         -5.4623869729        3.2697952387        0.7577883025
 C         -6.5624605592        2.8791978961       -0.2290309862
 H         -7.5285552523        3.0453865509        0.2522907462
 H         -6.5031565563        3.5439304714       -1.0944931260
 C         -6.5046864514        1.4442493911       -0.7467035186
 H         -5.5786372224        1.2926863761       -1.3048963359
 H         -7.3305256904        1.3093073991       -1.4503587291
 C         -6.6232748375        0.3588483974        0.3210859871
 H         -7.5297959828        0.5177472129        0.9082206740
 H         -6.7220624738       -0.6004861567       -0.1939078603
 C         -5.4297809992        0.2452293772        1.2849037292
 H         -5.5059293664        0.9657086434        2.0957780371
 H         -5.4501666583       -0.7530584058        1.7316939894
 H         -5.5114290338        4.3535562773        0.8943787148
 H         -5.6438610675        2.8227210905        1.7307255183
 H         -3.3371596729        3.4313400175        0.9768774684
 H         -3.8799015409        3.4197091261       -0.6892996910
 O         -2.3827374688        1.5569532485       -0.5170838697
 C         -1.6541782606        0.4128376281       -0.7986108791
 O         -0.6025467075        0.6309920195       -1.4308710230
 H          1.1253199297       -1.2077542781       -1.2347853454
 C          1.0481771402       -1.5540752597       -0.2164024826
 C         -0.1550243975       -2.0626176726        0.2471902239
 C         -0.2389284518       -2.4703568928        1.5755048098
 C          0.8546426811       -2.3691035569        2.4151254412
 C          2.0514877276       -1.8505232847        1.9520030169
 C          2.1409594051       -1.4319897926        0.6316473507
 N          3.3507081818       -0.8898311749        0.1490854324
 S          4.0566331300        0.3074238718        1.1124184074
 O          4.7961891316       -0.3406602428        2.1677224700
 O          3.0602294695        1.2644969084        1.5408615564
 C          5.1878038535        1.0543210822       -0.0438305931
 C          6.4652934905        0.5413299261       -0.1627741114
 C          7.3308312501        1.1087643459       -1.0844308699
 C          6.9064646120        2.1719572494       -1.8673534247
 C          5.6206827414        2.6754246187       -1.7368798450
 C          4.7493111076        2.1118406288       -0.8181247678
 H          3.7429082657        2.4752937597       -0.6791357515
 H          5.2928038346        3.5026013295       -2.3458553110
 H          7.5816282794        2.6135004252       -2.5831920611
 H          8.3314790765        0.7216324548       -1.1886577879
 H          6.7513955049       -0.2800094641        0.4730122979
 H          3.2378643200       -0.5424467209       -0.7948260490
 H          2.9063381874       -1.7438511959        2.6001955459
 H          0.7749544423       -2.6891109725        3.4433752762
 H         -1.1806971936       -2.8498134720        1.9470061488
 C         -1.3912556902       -2.0959406197       -0.6168556833
 H         -2.0417582484       -2.9009672715       -0.2501871887
 C         -1.1074789453       -2.3287395237       -2.0857681850
 C         -0.6486637459       -3.6831456886       -2.5342990684
 C         -2.0267069980       -3.2065201678       -2.8789438170
 H         -2.2391428254       -2.9363392657       -3.9025033893
 H         -2.8655226468       -3.6486637542       -2.3617291948
 H         -0.5504066438       -4.4484768628       -1.7794055716
 H          0.0866201754       -3.7447247823       -3.3217557551
 H         -0.6991323789       -1.4614596992       -2.5894642774
 O         -3.8488011719       -1.9828965627        0.7796287193
