  62
        -98.93720916
 C          2.4249861708        1.1104647850       -0.0594503699
 C          3.5071679250        0.7477192492        0.7775356742
 C          4.5044887664       -0.1871504711        0.2227748966
 C          4.3330141547       -0.6427206109       -1.0321783633
 C          5.1842549454       -1.6253316236       -1.7913975101
 C          4.9628199509       -3.0768571434       -1.3357276945
 C          4.8935440233       -3.2725782515        0.1765595057
 H          4.0910113813       -2.6534120397        0.5817458887
 H          4.6236900649       -4.3152264605        0.3639993762
 C          6.1894420885       -2.9834033235        0.9303743605
 H          6.0207722920       -3.2464355027        1.9777890319
 H          6.9790025150       -3.6342838975        0.5481307681
 C          6.6854154837       -1.5368342905        0.8788004918
 H          7.4610478450       -1.4317385223        1.6430935112
 H          7.1605253631       -1.3185008403       -0.0737897624
 C          5.6232208507       -0.4874082712        1.1911760723
 H          5.1392441058       -0.7392686691        2.1416522349
 H          6.1233423984        0.4723274370        1.3693306805
 H          5.7625061000       -3.6937275950       -1.7490546092
 H          4.0164264692       -3.4222168124       -1.7588793026
 H          4.8961068905       -1.5431042713       -2.8417327004
 H          6.2316750301       -1.3495700823       -1.7132422949
 O          3.2708402029       -0.2702000050       -1.8010661378
 C          2.2952135262        0.5996821110       -1.3500875987
 O          1.3984226221        0.8324202385       -2.1837550927
 H         -0.8121868979        1.7895699105       -1.1360226378
 C         -0.9173601351        1.2505062163       -0.2075855921
 C          0.1017562359        1.2908418526        0.7311998400
 C         -0.0501129006        0.5664165095        1.9104136429
 C         -1.1920137549       -0.1775607736        2.1400516903
 C         -2.2028440621       -0.2235664781        1.1955278320
 C         -2.0591612500        0.4907403216        0.0140964724
 N         -3.0665466571        0.4248454810       -0.9622397588
 S         -4.6586828171        0.6750264757       -0.5042662576
 O         -5.3346859800        1.1214895104       -1.7028512639
 O         -4.7483305582        1.5460385353        0.6449733764
 C         -5.2454174075       -0.9523899199       -0.0817186869
 C         -5.1169534819       -1.9557338912       -1.0220786266
 C         -5.5770316053       -3.2256486826       -0.7126612397
 C         -6.1575358880       -3.4688839596        0.5233952150
 C         -6.2825476072       -2.4500709535        1.4553154038
 C         -5.8233083571       -1.1776198217        1.1522804345
 H         -5.8941701611       -0.3562261432        1.8474416535
 H         -6.7343646583       -2.6411340196        2.4154332302
 H         -6.5146068551       -4.4584664770        0.7613020964
 H         -5.4812562423       -4.0204026276       -1.4349072798
 H         -4.6625331713       -1.7255472104       -1.9714449092
 H         -2.8427225630        0.9220492732       -1.8116949407
 H         -3.0945150330       -0.8046925742        1.3652345771
 H         -1.2968130986       -0.7302640904        3.0612814595
 H          0.7453749286        0.5905537514        2.6421384976
 C          1.3783612100        2.0606246788        0.4983293394
 H          1.7664224858        2.3742214172        1.4769069892
 C          1.1988075610        3.2893753567       -0.3684213529
 C          0.4564367354        4.4691319127        0.1821754443
 C          1.9388827233        4.5451316683       -0.0229551206
 H          2.3178051833        5.1570940052       -0.8277807680
 H          2.5768074649        4.5260783919        0.8484153660
 H         -0.1854150999        5.0310069791       -0.4793753613
 H          0.0856326381        4.3953927963        1.1934764723
 H          1.0796809120        3.0622457648       -1.4207483480
 O          3.6406039835        1.1851122261        1.9523051092
