  62
        -98.94090738
 C         -1.6731510792        0.7309574243        0.3713279755
 C         -2.9391144227        1.0541045837        0.9235740156
 C         -4.1073315304        0.7223096902        0.1006895244
 C         -3.9300613744        0.2058242893       -1.1284497716
 C         -5.0186827142       -0.1656437060       -2.0983592360
 C         -5.6134109087       -1.5609278699       -1.8627794028
 C         -6.5117160586       -1.6864971767       -0.6315195304
 H         -7.2702474281       -0.9034276290       -0.6549155176
 H         -7.0302195988       -2.6441600202       -0.7098354835
 C         -5.7622173160       -1.6400629312        0.7074553825
 H         -4.6993625664       -1.8262780529        0.5363187674
 H         -6.1259005150       -2.4397218426        1.3567120605
 C         -5.9176588315       -0.3274920722        1.4758806430
 H         -6.9614971260       -0.1959281426        1.7692787490
 H         -5.3179722643       -0.3904312052        2.3877934061
 C         -5.4681026860        0.9164736368        0.6981269654
 H         -6.1943395832        1.1583890180       -0.0775920768
 H         -5.4082595314        1.7550090869        1.3963710429
 H         -6.2055536767       -1.8154835349       -2.7447981696
 H         -4.7957367192       -2.2818547232       -1.7921351793
 H         -4.5682141223       -0.1463593913       -3.0930408686
 H         -5.8127800071        0.5806933573       -2.0620149467
 O         -2.6979359411       -0.0228801713       -1.6519994267
 C         -1.5397353659        0.2127526754       -0.9182049436
 O         -0.4947513981       -0.0717342124       -1.5300296480
 O         -3.0852503276        1.5995409659        2.0499475413
 C         -0.4451323438        1.0279875959        1.2128405854
 C          0.5928312313        1.7464661929        0.3904928711
 C          0.2942104069        3.0134148775       -0.1050373092
 C          1.2077373820        3.7027927094       -0.8774609777
 C          2.4448746898        3.1499043764       -1.1592247382
 C          2.7520406904        1.8862695194       -0.6709241433
 C          1.8274750646        1.1917732690        0.0968698322
 H          2.0758089875        0.2050301024        0.4490640853
 N          3.9838231931        1.2878493097       -0.9643115786
 S          4.7372906133        0.2843448471        0.1330731743
 O          4.5263179067        0.7235011502        1.4935374127
 O          6.1169286838        0.2402972210       -0.3051799182
 C          4.0098423986       -1.3219971263       -0.1116685716
 C          3.6222251410       -1.7072852943       -1.3790107026
 C          3.1028342747       -2.9789123330       -1.5609557603
 C          2.9895035750       -3.8425817334       -0.4825376755
 C          3.3881939073       -3.4423522016        0.7834146128
 C          3.9032504185       -2.1697088699        0.9732395034
 H          4.2129483261       -1.8128768015        1.9428292968
 H          3.2977021459       -4.1150395111        1.6217054836
 H          2.5849453289       -4.8318037308       -0.6282786542
 H          2.7852769245       -3.2902628967       -2.5430787675
 H          3.7157575619       -1.0116310934       -2.1959954656
 H          4.6355617519        1.8573749688       -1.4825086564
 H          3.1624733181        3.6873689910       -1.7604404407
 H          0.9601385754        4.6820311175       -1.2591697220
 H         -0.6720383577        3.4461375893        0.1170725996
 H         -0.8067831146        1.7285628571        1.9847021470
 C          0.1092375731       -0.1807537178        1.9517967404
 C         -0.8033359593       -1.2653099673        2.4387278756
 C          0.1689919494       -1.5444149224        1.3340489493
 H          1.0276664579       -2.1637052643        1.5483878731
 H         -0.2047841607       -1.6559159460        0.3285556584
 H         -0.6177997352       -1.6949634481        3.4115622983
 H         -1.8515319982       -1.1827841940        2.1903169813
 H          0.9306842772        0.0913727762        2.6089187564
