  62
        -98.94495180
 C          1.8741277241        0.7392989006       -0.1600042062
 C          2.4335260721        0.1018931826        0.9725259222
 C          3.4910480784       -0.8806620736        0.7015026287
 C          3.8316292478       -1.1441205344       -0.5735784855
 C          4.9244440063       -2.0841427426       -0.9910527138
 C          6.2645677076       -1.3491617947       -1.1344900116
 C          6.6180527204       -0.4691267631        0.0644934544
 H          7.5958942701       -0.0256490291       -0.1350365975
 H          5.8998742673        0.3514879554        0.1280808791
 C          6.6579017185       -1.2119167596        1.4073350907
 H          6.7389552491       -2.2857692821        1.2347377611
 H          7.5525363410       -0.9030694473        1.9520679731
 C          5.4626915820       -0.9344326376        2.3208806868
 H          5.3222136741        0.1446510741        2.4221227334
 H          5.6948078323       -1.3288433886        3.3137620622
 C          4.1301212622       -1.5550884915        1.8829605527
 H          4.2662448651       -2.6216524765        1.6916852884
 H          3.4235646728       -1.4423301986        2.7107226189
 H          7.0500146177       -2.0914158186       -1.2879848929
 H          6.2178115860       -0.7151585020       -2.0229202531
 H          5.0124215142       -2.8816637515       -0.2556195416
 H          4.6536073039       -2.5194789431       -1.9545171593
 O          3.2409089237       -0.5441763512       -1.6381620065
 C          2.2531069060        0.4151832720       -1.4630365930
 O          1.8019076338        0.8872051446       -2.5226803436
 H         -0.3243698550       -0.6177185357        0.2668709695
 C         -0.9260451569        0.0277986726       -0.3611601275
 C         -0.4974875988        1.3285558242       -0.5991302134
 C         -1.2889409450        2.1500125111       -1.3904144884
 C         -2.4576454972        1.6664842946       -1.9545653473
 C         -2.8668961717        0.3646055104       -1.7362122499
 C         -2.0929312853       -0.4596500971       -0.9280826610
 N         -2.5067437703       -1.7797869125       -0.6842063210
 S         -4.1187282445       -2.0456048719       -0.3239246312
 O         -4.1337116907       -3.2507656097        0.4753854701
 O         -4.8880126501       -2.0910145713       -1.5424500869
 C         -4.6197871738       -0.6388883267        0.6527004817
 C         -3.9544528419       -0.4004712901        1.8390659686
 C         -4.3080391476        0.7048876633        2.5953415617
 C         -5.3160147006        1.5490316791        2.1545586354
 C         -5.9780773761        1.2930272543        0.9641134279
 C         -5.6270107895        0.1898522024        0.2024271487
 H         -6.1132523060       -0.0450200743       -0.7303270266
 H         -6.7628110259        1.9497725415        0.6251056774
 H         -5.5861800188        2.4104891857        2.7446047289
 H         -3.7930503922        0.9048537116        3.5213636679
 H         -3.1774651425       -1.0772950221        2.1573898309
 H         -1.8991924062       -2.2950433298       -0.0649631121
 H         -3.7628053756       -0.0318478669       -2.1855890192
 H         -3.0559843377        2.3125517293       -2.5783821131
 H         -0.9861882165        3.1670540452       -1.5762028080
 C          0.7898335380        1.7814011839        0.0453194043
 H          0.6282813363        1.8215071480        1.1330949915
 C          1.2628684524        3.1401439025       -0.4263433519
 C          0.7393584655        4.3884427817        0.2169216341
 C          2.1483704905        3.9480400131        0.4730445680
 H          2.9565677093        4.5113469591        0.0310926600
 H          2.3873734002        3.5292959044        1.4399202071
 H          0.0216254856        4.2763355494        1.0151804882
 H          0.5814181004        5.2594535211       -0.4009061028
 H          1.4783881739        3.1596890077       -1.4887032231
 O          2.0590302140        0.3374029148        2.1537534488
