  62
        -98.94644769
 C         -1.5905381487       -1.0757600702        0.0381400103
 C         -2.6661343187       -0.8238380107        0.9270918405
 C         -3.3787818293        0.4428396589        0.7309940707
 C         -2.9612575799        1.3030956092       -0.2153034394
 C         -3.5559257106        2.6540118589       -0.5071621492
 C         -4.7782349508        2.6107763484       -1.4346076290
 C         -6.0566105104        2.0592041177       -0.8022308488
 H         -6.2559424905        2.5860486475        0.1314503013
 H         -6.8764204506        2.2880631073       -1.4861190986
 C         -6.0353623396        0.5455208877       -0.5473347289
 H         -6.9745563395        0.1052964873       -0.8900069387
 H         -5.2357030095        0.0881032581       -1.1345298990
 C         -5.8593698592        0.1518701677        0.9193998611
 H         -5.8204742086       -0.9388660123        0.9788667710
 H         -6.7240001592        0.4889373672        1.4954660013
 C         -4.5887105893        0.7089989383        1.5744857109
 H         -4.6986192398        1.7774430182        1.7584423410
 H         -4.4451569089        0.2014852483        2.5314622808
 H         -4.5259817007        2.0209580085       -2.3189433590
 H         -4.9741349913        3.6340696483       -1.7631926589
 H         -2.7760955810        3.2408656493       -0.9971201693
 H         -3.8251291507        3.1457375287        0.4279195309
 O         -1.9035743999        1.0397395397       -1.0264383796
 C         -1.2101042293       -0.1607206199       -0.9433477797
 O         -0.2988229994       -0.2735043394       -1.7850945399
 O         -3.0099287581       -1.6184089010        1.8413628505
 C         -0.8003863981       -2.3625123298        0.2167464001
 C          0.5784370818       -1.9687814891        0.6824911298
 C          0.7750766619       -1.6259639491        2.0178204198
 C          1.9983299517       -1.1527760186        2.4538248296
 C          3.0448139315       -0.9858563180        1.5627073395
 C          2.8527559114       -1.3147212780        0.2278858995
 C          1.6358518316       -1.8267459486       -0.2016043003
 H          1.5039215115       -2.0704847486       -1.2434535903
 N          3.8895764312       -1.0922560974       -0.6964980007
 S          4.6643411104        0.3887640229       -0.6081005508
 O          5.0893383601        0.6822035632       -1.9595885608
 O          5.7230473507        0.3133466734        0.3697877991
 C          3.4446804000        1.5761286723       -0.0628649005
 C          3.7619619597        2.4254717424        0.9785392495
 C          2.8248860094        3.3550088019        1.3993092497
 C          1.5870073792        3.4165148913        0.7780337900
 C          1.2844852994        2.5576630313       -0.2666924600
 C          2.2197176798        1.6303383017       -0.6973034603
 H          1.9788556600        0.9515261217       -1.5001790202
 H          0.3198280293        2.5867102708       -0.7490886399
 H          0.8528851289        4.1344945910        1.1085555301
 H          3.0596440192        4.0240130720        2.2115259297
 H          4.7317911799        2.3357501528        1.4406530193
 H          3.6246780611       -1.2968470275       -1.6494890107
 H          4.0007844414       -0.5999992075        1.8784719893
 H          2.1373080818       -0.8978307285        3.4932504196
 H         -0.0523477879       -1.7208079896        2.7069645100
 H         -1.3016044977       -2.9037559701        1.0299570401
 C         -0.8140687279       -3.2249854997       -1.0270738200
 C         -0.3621842871       -4.6510921895       -0.9351872201
 C         -1.8129717573       -4.3359232102       -1.1379169899
 H         -2.2550988374       -4.5362914704       -2.1024839198
 H         -2.4896217771       -4.4847273706       -0.3092802398
 H          0.1933417729       -5.0717713192       -1.7594988103
 H         -0.0516554068       -5.0122326194        0.0335338298
 H         -0.5852878283       -2.6781381596       -1.9338679700
