  62
        -98.94064869
 C          1.9719692687        0.8502273865        0.7105689713
 C          1.8498997566        0.1772414374       -0.5311711370
 C          2.0095083774       -1.2818413729       -0.4849822669
 C          2.1811235881       -1.9035687061        0.6940154824
 C          2.3131476431       -3.3877755577        0.9052618070
 C          3.7316886050       -3.9312153459        0.6841466367
 C          4.1893034646       -3.9851314991       -0.7740001449
 H          5.1020551004       -4.5834687619       -0.8007402540
 H          3.4388881888       -4.5067742296       -1.3686166381
 C          4.4798942955       -2.6129551455       -1.3976139469
 H          4.5932716229       -1.8698724402       -0.6049431683
 H          5.4277123883       -2.6517356034       -1.9388682237
 C          3.4154597389       -2.1262484564       -2.3810700915
 H          3.3814099217       -2.7936438879       -3.2448971543
 H          3.7024700682       -1.1324951812       -2.7338751694
 C          2.0053049719       -2.0280281724       -1.7843957114
 H          1.3690032026       -1.4722615155       -2.4775986963
 H          1.5806860054       -3.0225033664       -1.6474420005
 H          4.4310108108       -3.3245992846        1.2641288429
 H          3.7567652325       -4.9456742530        1.0886608682
 H          2.0267608088       -3.5785271027        1.9420600168
 H          1.6126689181       -3.9097546113        0.2522436539
 O          2.2333183898       -1.2283118215        1.8745664979
 C          2.1273284762        0.1525900741        1.9094696545
 O          2.1833881555        0.6379028639        3.0593272154
 H         -0.6056220203        1.2452425575        1.1025454744
 C         -0.6290694503        2.0105246891        0.3382884939
 C          0.5270581745        2.7265945783        0.0517088182
 C          0.4737768842        3.7110159297       -0.9250596035
 C         -0.7034641031        3.9430674993       -1.6161261531
 C         -1.8365918214        3.1928968310       -1.3638207378
 C         -1.7955625686        2.2137044137       -0.3765895734
 N         -2.9286828466        1.4346191945       -0.0792529174
 S         -2.6851016158       -0.1607263440        0.4197998036
 O         -2.4261473602       -0.1644461733        1.8396270633
 O         -1.7044271315       -0.8171101393       -0.4143731702
 C         -4.3075905270       -0.8349368483        0.1100787626
 C         -4.5423262773       -1.5164659007       -1.0691566980
 C         -5.8140164807       -2.0088842437       -1.3176604788
 C         -6.8247751961       -1.8092141221       -0.3894072342
 C         -6.5739445465       -1.1238577626        0.7901544273
 C         -5.3044152314       -0.6299573220        1.0452369502
 H         -5.0583032535       -0.0998353362        1.9504796779
 H         -7.3612072032       -0.9732242094        1.5109683525
 H         -7.8133910790       -2.1931805353       -0.5851749982
 H         -6.0102939483       -2.5452106793       -2.2320234525
 H         -3.7224779809       -1.6538795842       -1.7560962818
 H         -3.6405404749        1.4921249381       -0.7951144907
 H         -2.7432624589        3.3553339372       -1.9265889343
 H         -0.7309457151        4.7049493723       -2.3804952002
 H          1.3591938277        4.2748561355       -1.1686049342
 C          1.7705108333        2.3533628266        0.8221304418
 H          1.5665837925        2.5306900039        1.8920305094
 C          2.9898438858        3.1904684962        0.4675372499
 C          4.3719299736        2.6183148878        0.5665596305
 C          3.7932626711        2.9509623965       -0.7740291837
 H          4.1873109657        3.8078309116       -1.3008375409
 H          3.4819712127        2.1442952931       -1.4178587778
 H          5.1587169675        3.2436333233        0.9612538136
 H          4.4608923677        1.5772684176        0.8426781497
 H          2.8769903984        4.2230047166        0.7838523455
 O          1.6250373515        0.7516406797       -1.6275268425
