  62
        -98.93299173
 C         -2.1119096109       -1.1402532403       -0.5111023406
 C         -3.1969539310       -0.8645519401        0.3589779993
 C         -3.8716848707        0.4367709700        0.2094610591
 C         -3.4050322805        1.3079883299       -0.7024868509
 C         -3.9094164802        2.6878977400       -1.0411376810
 C         -4.2744132702        3.5973508601        0.1422089489
 C         -5.7786324202        3.8357631903        0.2857094987
 H         -5.9330070402        4.7747979604        0.8217764186
 H         -6.2076810000        3.9552565204       -0.7112843614
 C         -6.5408539405        2.7452053805        1.0363684186
 H         -7.6070702605        2.9650834306        0.9448587184
 H         -6.2889536407        2.7940808205        2.0979733786
 C         -6.2910929507        1.3172610904        0.5471379887
 H         -6.2464687905        1.2884231304       -0.5409088013
 H         -7.1456515208        0.7074697406        0.8476908886
 C         -5.0284680408        0.6750650902        1.1411450489
 H         -4.6766736909        1.2610592402        1.9954010190
 H         -5.2711024011       -0.3155469997        1.5382252789
 H         -3.7943202201        4.5636651500       -0.0213324510
 H         -3.8639391004        3.1881026801        1.0643127690
 H         -4.7672708601        2.5888836501       -1.7110357711
 H         -3.1081730500        3.1451119798       -1.6262774409
 O         -2.3489200404        1.0088802597       -1.5092980407
 C         -1.6780113106       -0.1997058304       -1.4438779805
 O         -0.7416701005       -0.2881519606       -2.2644702004
 O         -3.5978467612       -1.6856481700        1.2275493792
 C         -1.4265911811       -2.4874146504       -0.3443795104
 C         -0.1642369012       -2.3241946805        0.4684201798
 C         -0.0847089115       -2.8086460405        1.7687051298
 C          1.0598706384       -2.6177496907        2.5234514900
 C          2.1461263986       -1.9388578208        2.0005131601
 C          2.0706961389       -1.4422354909        0.7059500001
 C          0.9282261890       -1.6458242607       -0.0531421801
 H          0.8701681292       -1.2392433108       -1.0520719501
 N          3.1673226991       -0.7317130111        0.1587052102
 S          3.5107197192        0.7424155389        0.9143775202
 O          3.8816108489        0.4802813489        2.2814638403
 O          2.4192481794        1.6750468991        0.7202479200
 C          4.9391298294        1.2594681486       -0.0158032296
 C          6.1847769593        0.8012869585        0.3674708906
 C          7.2922529695        1.1698345983       -0.3794113592
 C          7.1359113098        1.9833515882       -1.4917541593
 C          5.8788212699        2.4353932484       -1.8638900195
 C          4.7669790697        2.0698108486       -1.1213630096
 H          3.7719238098        2.4046135588       -1.3695375198
 H          5.7594417001        3.0689534384       -2.7281235295
 H          7.9988221399        2.2691531481       -2.0722566291
 H          8.2715997294        0.8222038881       -0.0928360991
 H          6.2571262591        0.1767846785        1.2422656207
 H          2.9981833493       -0.5334401411       -0.8207419598
 H          3.0340539386       -1.7644696610        2.5852337502
 H          1.1061816682       -2.9992002906        3.5323651100
 H         -0.9371944216       -3.3191672504        2.1931543997
 H         -2.1268664813       -3.0937091702        0.2454827195
 C         -1.1605425910       -3.1988170505       -1.6559281903
 C         -0.9007337113       -4.6744288105       -1.6381311203
 C         -2.1864072011       -4.1462436803       -2.1981703605
 H         -2.3392157209       -4.1812399903       -3.2663668205
 H         -3.0900849612       -4.2874490902       -1.6234578906
 H         -0.1680895212       -5.0761320106       -2.3209088701
 H         -0.9320392915       -5.1741864705       -0.6818086602
 H         -0.6147333308       -2.5986932106       -2.3718042703
