  62
        -98.93692429
 C          1.3984059015        1.6724044900        0.9543304386
 C          2.4858564509        1.2508056591        0.1506882382
 C          3.0139748503       -0.0926363811        0.4470477886
 C          2.4808862605       -0.8296104303        1.4352204692
 C          2.8963388199       -2.2161148604        1.8458926396
 C          2.6092513388       -3.3148707507        0.8031419703
 C          3.8073641981       -3.6565646318       -0.0918415202
 H          4.7257185885       -3.3839003920        0.4304931092
 H          3.8386331474       -4.7381914319       -0.2389292297
 C          3.8038239377       -3.0162444324       -1.4834655205
 H          4.8075616074       -3.1192781032       -1.9030872810
 H          3.1167166170       -3.5698603824       -2.1280611098
 C          3.3876919184       -1.5459517322       -1.5422847909
 H          3.6149217881       -1.1672218929       -2.5416922013
 H          2.3033517785       -1.4703532916       -1.4250670204
 C          4.0538626895       -0.6411169421       -0.4861705717
 H          4.8180283895       -1.1877364222        0.0645961681
 H          4.5232751697        0.2153244274       -0.9749956724
 H          2.3244345186       -4.2140863303        1.3523600409
 H          1.7508468086       -3.0182270805        0.1983625807
 H          3.9602086801       -2.2129210308        2.0935767991
 H          2.3384114703       -2.4332742396        2.7589907601
 O          1.4717620611       -0.3671800394        2.2209212395
 C          0.8777634916        0.8526159208        1.9591289293
 O         -0.0986259478        1.1127559117        2.6940068997
 O          3.0081241907        1.9310349883       -0.7693008724
 C          0.5758144221        2.9313653204        0.7124585084
 C         -0.7397802585        2.5170465908        0.0968973794
 C         -1.9421230580        3.1083654616        0.4651370498
 C         -3.1380094885        2.6711039320       -0.0778821494
 C         -3.1621781596        1.6083553816       -0.9634677789
 C         -1.9653481401        1.0050147607       -1.3299463192
 C         -0.7657482596        1.4848456803       -0.8301174601
 H          0.1536350100        1.0062341397       -1.1325858804
 N         -1.9278473712       -0.1333817197       -2.1657731787
 S         -1.4290055015       -1.5436748596       -1.4003705383
 O         -0.0944506611       -1.3840654001       -0.8880178491
 O         -1.6214117326       -2.5936110200       -2.3770789777
 C         -2.6017089809       -1.7406563883       -0.0714448876
 C         -2.4100152198       -1.0508219678        1.1086599820
 C         -3.3764596294       -1.1411944568        2.0988250626
 C         -4.5097544399       -1.9125340963        1.8937410136
 C         -4.6862694509       -2.6015700568        0.7028041540
 C         -3.7275802114       -2.5110317378       -0.2927914566
 H         -3.8193164722       -3.0304382282       -1.2331840763
 H         -5.5669474013       -3.2034828864        0.5468421148
 H         -5.2578861695       -1.9767733356        2.6679423440
 H         -3.2278766086       -0.6007057065        3.0200617022
 H         -1.5192407395       -0.4587366883        1.2508451012
 H         -2.8008959215       -0.3142180294       -2.6435303581
 H         -4.0970066900        1.2396555019       -1.3580801282
 H         -4.0638243781        3.1419639626        0.2146029709
 H         -1.9388946771        3.8995096119        1.2002265994
 H          0.3501103329        3.3491507010        1.7080279284
 C          1.2844691422        4.0126455896       -0.0852999925
 C          1.0365613215        4.2327444790       -1.5441824524
 C          0.5376202126        5.2300566998       -0.5443137226
 H          1.0319881532        6.1874216195       -0.4801493534
 H         -0.5260631973        5.2672223504       -0.3664754421
 H          1.8833138113        4.4856714183       -2.1633527830
 H          0.3161244409        3.5966096992       -2.0360369217
 H          2.3014211325        4.1665780192        0.2563461569
