  62
        -98.94615450
 C         -1.0276891815       -1.5738036035       -0.1591728659
 C         -1.1618759370       -0.1838144158       -0.4000953066
 C         -2.2436293183        0.4892609085        0.3319219854
 C         -2.9781106976       -0.1891894963        1.2297117305
 C         -4.0839563475        0.3729453173        2.0814881097
 C         -5.4465491954        0.4349334904        1.3772697619
 C         -5.5750935721        1.5138255965        0.3011611441
 H         -6.6349084828        1.5898328106        0.0499869622
 H         -5.2688152020        2.4748935609        0.7153927069
 C         -4.7824446371        1.2265623926       -0.9816261167
 H         -4.5115791033        0.1688011897       -1.0123596835
 H         -5.4147115244        1.4211676461       -1.8507782042
 C         -3.5154186817        2.0661271407       -1.1447925975
 H         -3.7856933882        3.1194413975       -1.2457573096
 H         -3.0142819334        1.7550148597       -2.0644754831
 C         -2.5131605306        1.9278177203        0.0087831112
 H         -1.5662813179        2.3754019894       -0.3011124860
 H         -2.8769707925        2.4531403566        0.8920279429
 H         -5.6571204471       -0.5437976548        0.9400141237
 H         -6.2005157273        0.6249357429        2.1447479656
 H         -4.1727668424       -0.2859847850        2.9481786013
 H         -3.8058366230        1.3677131003        2.4316193205
 O         -2.7757752671       -1.5093873203        1.4853910430
 C         -1.8220344128       -2.2287972836        0.7864935539
 O         -1.7768016035       -3.4392339761        1.0909302706
 H          1.4336399277       -0.2454689644       -0.2513130428
 C          1.9235547147       -1.1425783574        0.0886439398
 C          1.3320851708       -2.3760430088       -0.1403438158
 C          1.9826340757       -3.5217305151        0.3020479206
 C          3.1918887273       -3.4292103984        0.9682949288
 C          3.7615294637       -2.1950047816        1.2256105900
 C          3.1160569398       -1.0443548637        0.7880486188
 N          3.6526652671        0.2300328676        1.0266119322
 S          2.6166690033        1.4938744613        1.4007356693
 O          3.4474888868        2.4345256751        2.1285631725
 O          1.4427742814        1.0316571028        2.1071326277
 C          2.1760155330        2.2404679583       -0.1533360014
 C          1.1319134822        3.1425119342       -0.1439277340
 C          0.7829007537        3.7799491547       -1.3230076916
 C          1.4827079531        3.5049496758       -2.4867511677
 C          2.5314877112        2.5997861103       -2.4781215377
 C          2.8880509150        1.9612047788       -1.3009346700
 H          3.6911883181        1.2435651363       -1.2668464474
 H          3.0699652772        2.3825535748       -3.3868676136
 H          1.2034856778        3.9949547321       -3.4063286110
 H         -0.0375577690        4.4802930396       -1.3315353541
 H          0.6065068890        3.3148294488        0.7829224215
 H          4.4831739701        0.2491654732        1.6005166366
 H          4.6932219373       -2.1203289898        1.7656392450
 H          3.6881373944       -4.3260245488        1.3071488264
 H          1.5260375761       -4.4867524777        0.1378556371
 C          0.0022199945       -2.4548915219       -0.8507686629
 H         -0.3695010034       -3.4841105465       -0.7508409167
 C          0.1699194686       -2.1445149573       -2.3259481365
 C          0.7058854542       -3.2062338790       -3.2364602394
 C         -0.7347628451       -2.8015473018       -3.3224900869
 H         -1.0629575603       -2.2276987793       -4.1758912124
 H         -1.4806627331       -3.4862912646       -2.9448698754
 H          0.9355708302       -4.1685641419       -2.8045927871
 H          1.3707773610       -2.9118892292       -4.0335991688
 H          0.4604884660       -1.1198575206       -2.5152273106
 O         -0.4352680483        0.4860854822       -1.1806360321
