  62
        -98.94054819
 C          1.8397454878       -0.7447597909       -0.6605046214
 C          2.1355214635        0.5221580194       -0.0968274595
 C          3.5447741970        0.9387934570       -0.1721397030
 C          4.4497113473        0.1591936412       -0.7884515794
 C          5.9140469401        0.4595342221       -0.9588489032
 C          6.7747751661        0.0793388328        0.2537647861
 C          6.6153340977        0.9855891298        1.4752199265
 H          7.4265436006        0.7405658433        2.1637113178
 H          6.7472776584        2.0254298880        1.1743638063
 C          5.2781861202        0.8265567945        2.2122453629
 H          4.8071471475       -0.1126266541        1.9130031999
 H          5.4602542851        0.7640797287        3.2875076166
 C          4.2899799968        1.9709094575        1.9859843295
 H          4.6980318746        2.8948544140        2.4018204503
 H          3.3675109321        1.7396854726        2.5250220816
 C          3.9312523081        2.2142906172        0.5140531459
 H          3.0699048191        2.8860075946        0.4764557308
 H          4.7658517277        2.6873033291       -0.0029984436
 H          6.5487112561       -0.9522890701        0.5334392399
 H          7.8192399518        0.1154176340       -0.0644102986
 H          6.2526537765       -0.1239220781       -1.8178254919
 H          6.0475874514        1.5180470485       -1.1841156331
 O          4.1153730822       -1.0248406788       -1.3665202290
 C          2.8184448883       -1.5061171157       -1.3084181991
 O          2.6609535406       -2.6075816317       -1.8716092638
 H         -1.2410819600        0.2527757068        0.8067630590
 C         -1.3542911402        0.4015608493       -0.2559384286
 C         -0.5622265367       -0.3175241545       -1.1370710317
 C         -0.7059762683       -0.0846943943       -2.5008483079
 C         -1.6238720607        0.8373568201       -2.9711083276
 C         -2.4144352163        1.5519476316       -2.0877259146
 C         -2.2642211439        1.3375720752       -0.7256616469
 N         -3.0933802519        2.0489795905        0.1778532504
 S         -4.6515779810        1.4397737418        0.2626764788
 O         -5.2951379947        1.6402819338       -1.0101358337
 O         -5.2726358703        2.0698600971        1.4055002348
 C         -4.4183165163       -0.3033044129        0.5647672673
 C         -4.3196373691       -0.7472018419        1.8683549288
 C         -4.0282937628       -2.0815291223        2.1021225460
 C         -3.8265794358       -2.9408011369        1.0325486606
 C         -3.9266912351       -2.4789172968       -0.2710998081
 C         -4.2236033509       -1.1468194361       -0.5108351282
 H         -4.3094133029       -0.7500617459       -1.5092989080
 H         -3.7648183881       -3.1484270086       -1.1007016679
 H         -3.5885770001       -3.9771909187        1.2152367013
 H         -3.9515754231       -2.4454708479        3.1142801441
 H         -4.4821808271       -0.0452612235        2.6707629785
 H         -2.7020871833        2.0905326733        1.1090878850
 H         -3.1484574545        2.2627678674       -2.4311304478
 H         -1.7256043474        1.0009443576       -4.0333134628
 H         -0.0856048836       -0.6380812399       -3.1926981475
 C          0.4389195539       -1.3355551139       -0.6555745815
 H          0.4755743840       -2.1487616422       -1.3973566528
 C          0.0236768922       -1.9706506305        0.6644761634
 C          0.9970337155       -2.8002768768        1.4456265889
 C          0.5159928746       -1.4928165652        1.9958406632
 H         -0.1722680399       -1.5108852022        2.8284581689
 H          1.1999398270       -0.6591386006        2.0153851915
 H          0.6479532757       -3.7137195537        1.9023193759
 H          2.0097124517       -2.8569457678        1.0728400211
 H         -1.0006609018       -2.3300603481        0.6281836502
 O          1.2910356803        1.2779059699        0.4479736277
