  62
        -98.94031298
 C          2.6446560595        1.1391461413        0.2691399690
 C          2.5625367997        0.3009374108       -0.8707958707
 C          3.4050124001       -0.9033466789       -0.8368072803
 C          4.1944898803       -1.1455496982        0.2241912897
 C          5.1225916608       -2.3180561377        0.3905085001
 C          4.4376889813       -3.5812911278        0.9301605907
 C          3.5163951115       -4.2957499585       -0.0596592490
 H          4.0553302214       -4.4762409187       -0.9901459689
 H          3.2766355419       -5.2693793684        0.3723473614
 C          2.2065561912       -3.5519221091       -0.3573170391
 H          1.3704309214       -4.2532662694       -0.3101193188
 H          2.0331174909       -2.7974446989        0.4140207806
 C          2.1568802508       -2.8783089397       -1.7289988494
 H          2.1926224310       -3.6392757900       -2.5115459391
 H          1.2052374306       -2.3474818101       -1.8163354195
 C          3.2852569204       -1.8686553593       -1.9770894099
 H          4.2289548406       -2.3889163791       -2.1388176198
 H          3.0403835701       -1.2956980398       -2.8745970301
 H          3.8732491613       -3.3159882176        1.8274277006
 H          5.2254202316       -4.2771113674        1.2279988209
 H          5.6050054908       -2.5420210979       -0.5611911298
 H          5.8886859907       -2.0099866572        1.1054136699
 O          4.2457585001       -0.3147053177        1.3003229094
 C          3.4485409097        0.8175564120        1.3649616191
 O          3.5412368796        1.4454314925        2.4397415088
 H          0.2387468898        0.4798405508        1.3768141495
 C         -0.2851086805        1.0375799603        0.6083269993
 C          0.3730124791        2.0818990603       -0.0312887611
 C         -0.3107176813        2.7931231797       -1.0074360214
 C         -1.6098442612        2.4510679791       -1.3412842511
 C         -2.2524836307        1.3988981491       -0.7165571606
 C         -1.5811808304        0.6846648197        0.2675965496
 N         -2.2186929599       -0.3991333803        0.8970940301
 S         -3.7597998799       -0.1669200906        1.5207924201
 O         -3.9697675504        1.2078705895        1.9119604096
 O         -3.8980656395       -1.1600168002        2.5640224405
 C         -4.8382177699       -0.5909943715        0.1693632304
 C         -4.7144150795       -1.8468709717       -0.3916897991
 C         -5.5485085995       -2.1955061324       -1.4418456089
 C         -6.4884053898       -1.2885847730       -1.9086975692
 C         -6.6028903002       -0.0330121028       -1.3319259197
 C         -5.7710869803        0.3222488179       -0.2813401299
 H         -5.8204074906        1.2886251481        0.1947840498
 H         -7.3345115905        0.6702600768       -1.6960082699
 H         -7.1356796898       -1.5625326335       -2.7268004190
 H         -5.4624704291       -3.1711484126       -1.8925218785
 H         -3.9737541892       -2.5227964013        0.0022281811
 H         -1.6344310897       -0.8846468098        1.5618979202
 H         -3.2598521306        1.1239472286       -0.9829135504
 H         -2.1265241315        3.0078422786       -2.1081244513
 H          0.1795519084        3.6011804497       -1.5244720717
 C          1.7882100290        2.3870857210        0.3987918286
 H          1.7657986590        2.6046294514        1.4803336085
 C          2.3731536585        3.6194542010       -0.2751531619
 C          3.8503390284        3.7553465214       -0.4906763521
 C          2.9351853284        3.5808448606       -1.6632839720
 H          2.7649357380        4.4305104603       -2.3082938223
 H          2.9275788287        2.6326960404       -2.1764826916
 H          4.3038747981        4.7215283417       -0.3273817425
 H          4.4781499388        2.9252327318       -0.2001794719
 H          1.8484574782        4.5247747809        0.0148353078
 O          1.8315610395        0.5301519302       -1.8668510507
