  62
        -98.93866737
 C          1.7060698812        1.1655942092       -0.8104596899
 C          2.7798354972        0.5461974481       -0.1209869638
 C          3.0651985391       -0.8582671149       -0.4467156991
 C          2.3304931729       -1.4756939729       -1.3868256194
 C          2.4659587426       -2.8835075907       -1.9099012434
 C          2.6580051222       -4.0019769936       -0.8765600741
 C          1.9688047602       -3.7676602855        0.4760060666
 H          1.2586166955       -2.9398313803        0.4089345100
 H          1.3941626914       -4.6583858791        0.7395680384
 C          2.9611255688       -3.5013270719        1.6110191624
 H          2.4640883239       -3.7082613834        2.5621040113
 H          3.7970364414       -4.1990025075        1.5180768062
 C          3.5050799126       -2.0756044952        1.6886546771
 H          2.7023360957       -1.3954238512        1.9895601075
 H          4.2636191369       -2.0464190149        2.4751493721
 C          4.1173861694       -1.5276818356        0.3885869682
 H          4.6367165360       -2.3081108783       -0.1625772650
 H          4.8360952088       -0.7482736105        0.6561584746
 H          2.2701797664       -4.9175324961       -1.3266454384
 H          3.7222570156       -4.1616296944       -0.7063736241
 H          1.5493343709       -3.0645566146       -2.4761763755
 H          3.2975919310       -2.9059380443       -2.6205413551
 O          1.3332205062       -0.8366859901       -2.0526227640
 C          0.9510025930        0.4601530924       -1.7440410940
 O         -0.0514665212        0.8376563907       -2.3849052776
 O          3.4789509765        1.1529691784        0.7357486404
 C          1.3462980891        2.5702327079       -0.3546958537
 C          0.4465960397        2.4616201470        0.8560589695
 C          0.7147492827        3.1629310011        2.0243539470
 C         -0.0701058734        2.9759732458        3.1489921754
 C         -1.1030511692        2.0568577947        3.1402443603
 C         -1.3813567525        1.3520236445        1.9730972516
 C         -0.6386682856        1.5972870001        0.8296875729
 H         -0.8720493596        1.0628907555       -0.0757382228
 N         -2.3974853298        0.3862820502        1.9397300787
 S         -2.1907780804       -1.0832327425        1.1420498411
 O         -2.7076946487       -2.0753798414        2.0649504929
 O         -0.8306859150       -1.2718354667        0.7030735972
 C         -3.3270291822       -0.9568352063       -0.2235379569
 C         -4.6611287464       -1.2052293272        0.0425473498
 C         -5.5855686054       -1.0966027862       -0.9822663499
 C         -5.1639263727       -0.7405760928       -2.2549065300
 C         -3.8235605665       -0.4954193227       -2.5062981173
 C         -2.8919933614       -0.6029707136       -1.4838116339
 H         -1.8455349743       -0.4107818143       -1.6654622875
 H         -3.4869005784       -0.2166276711       -3.4922047337
 H         -5.8816421955       -0.6550960785       -3.0555685560
 H         -6.6282940881       -1.2891726768       -0.7877361139
 H         -4.9417169861       -1.4930023855        1.0421852557
 H         -2.8533270651        0.2387512650        2.8287837928
 H         -1.6851768450        1.8748284821        4.0311232136
 H          0.1452929893        3.5267753016        4.0520832333
 H          1.5582246136        3.8362892588        2.0576365512
 H          2.2902648349        3.0258971496       -0.0237504149
 C          0.7307729924        3.4579100299       -1.4151736615
 C          0.8457429474        4.9453727014       -1.2735029791
 C          1.6240158560        4.2310085036       -2.3364229772
 H          1.3230596042        4.3440257239       -3.3667506967
 H          2.6908288245        4.1242774669       -2.2033868112
 H          0.0074022352        5.5553496689       -1.5722393986
 H          1.3874992063        5.3285429729       -0.4221893983
 H         -0.1854462840        3.0605867361       -1.8308504642
