  62
        -98.94361044
 C          1.4526041718        1.1841137461        0.0027979025
 C          2.5079805802        0.7590768839        0.8374588694
 C          3.1044274273       -0.5568531241        0.5411340447
 C          2.5977321203       -1.2826073795       -0.4734131367
 C          3.0652958456       -2.6226942681       -0.9745720127
 C          4.3534714282       -2.5277468039       -1.8108382266
 C          5.4139163774       -1.5780810820       -1.2585490299
 H          6.2073156156       -1.4951899424       -2.0059277558
 H          4.9769865189       -0.5851262859       -1.1376231526
 C          6.0562901217       -2.0131967192        0.0561956090
 H          6.8248502196       -1.2765025933        0.3035225360
 H          6.5524786111       -2.9754306907       -0.0893810374
 C          5.1113326535       -2.1356728982        1.2523911562
 H          5.7308856671       -2.2459692121        2.1475080194
 H          4.5083548201       -3.0371072493        1.1821666452
 C          4.2191191408       -0.9212902706        1.4924825196
 H          3.7436791592       -1.0300283051        2.4756415927
 H          4.8471801617       -0.0265018344        1.5731275364
 H          4.0799454496       -2.1743410176       -2.8078131157
 H          4.7745152261       -3.5293573948       -1.9113864517
 H          2.2656057166       -3.0170004491       -1.6055976584
 H          3.1880413313       -3.3056334221       -0.1388853974
 O          1.5679807278       -0.8377192804       -1.2463282152
 C          0.9606240649        0.3809303188       -1.0240871270
 O          0.0175588276        0.6403329252       -1.7976811100
 O          2.9447780102        1.4529955000        1.7980635513
 C          0.7886968441        2.5227724159        0.2631040252
 C         -0.6939623725        2.3423480303        0.4773872810
 C         -1.6453810721        3.2326108573       -0.0060776902
 C         -2.9941029935        3.0076521331        0.2100172111
 C         -3.4240145422        1.8829802876        0.8900437704
 C         -2.4795764389        0.9921402721        1.3855833827
 C         -1.1298906022        1.2404400977        1.2021700257
 H         -0.4117603482        0.5356563426        1.5959542378
 N         -2.8591422364       -0.1891939959        2.0608317208
 S         -2.5051020235       -1.6252347844        1.2671522132
 O         -3.0730728294       -2.6646194098        2.1000435642
 O         -1.0903008132       -1.7126058296        1.0147768128
 C         -3.4360881329       -1.5104514624       -0.2504679749
 C         -4.6954091085       -2.0793899726       -0.2889735195
 C         -5.4689466691       -1.9244022138       -1.4272546172
 C         -4.9766241151       -1.1947416331       -2.4992884998
 C         -3.7132415539       -0.6276383010       -2.4423955357
 C         -2.9296843537       -0.7820224908       -1.3080305292
 H         -1.9409792492       -0.3525801884       -1.2494352551
 H         -3.3223153346       -0.0588269317       -3.2707739121
 H         -5.5794858464       -1.0673692092       -3.3845854871
 H         -6.4505866529       -2.3677678000       -1.4737467851
 H         -5.0333251592       -2.6391600751        0.5683462025
 H         -3.8332424557       -0.2014655855        2.3334371595
 H         -4.4765710581        1.6917730102        1.0357333042
 H         -3.7202322228        3.7080472098       -0.1731138098
 H         -1.3298775743        4.1023843719       -0.5588054329
 H          1.2323372226        2.8942299004        1.1995392318
 C          1.1171683952        3.4958296005       -0.8516386829
 C          1.2477105105        4.9621546424       -0.5691074128
 C          2.4675525279        4.1450933586       -0.8673609142
 H          2.9640929667        4.2810252647       -1.8163905244
 H          3.1381059118        3.9071750891       -0.0544134105
 H          0.9090541863        5.6636152773       -1.3166321743
 H          1.0973747535        5.2910324396        0.4480317547
 H          0.6978003408        3.1902110084       -1.8039075388
