  62
        -98.94041250
 C         -0.8588500704       -1.7184415498       -0.1806999885
 C         -1.1277535100       -0.3697815100       -0.5131465996
 C         -2.2864046900        0.2557064507        0.1540001197
 C         -2.9727503504       -0.4297474385        1.0851710500
 C         -4.1297764106       -0.0227137776        1.9742153294
 C         -4.9588267102        1.2199100124        1.6589424283
 C         -5.7815886899        1.1319915516        0.3743981382
 H         -6.5710201901        0.3898895419        0.5173080085
 H         -6.2603968897        2.0998735016        0.2104718673
 C         -5.0022626397        0.7434691906       -0.8793806014
 H         -4.6151962899       -0.2716087394       -0.7701844005
 H         -5.7035903394        0.7323206301       -1.7180707015
 C         -3.8506555794        1.6770143401       -1.2476289717
 H         -4.2165893391        2.7036837301       -1.3069730325
 H         -3.4996978492        1.3873964093       -2.2413133414
 C         -2.6358118496        1.6427754605       -0.3025462914
 H         -1.7657349394        2.0058587499       -0.8562006114
 H         -2.7759108897        2.3007050911        0.5526241681
 H         -5.6568577504        1.3460105231        2.4912811680
 H         -4.3242320200        2.1012265722        1.6454121679
 H         -4.7919852908       -0.8934101074        2.0175752799
 H         -3.7038490708        0.0912123030        2.9777760194
 O         -2.6375067908       -1.7101272383        1.4217393010
 C         -1.6040079508       -2.3806426490        0.7970517317
 O         -1.4499351211       -3.5559158187        1.1899774226
 H          1.4401086500       -0.1652613903       -0.2253435390
 C          2.0055352197       -0.9926542102        0.1699310117
 C          1.5591202695       -2.2896212502       -0.0353153575
 C          2.3087146691       -3.3430208200        0.4744984735
 C          3.4698837690       -3.0983081098        1.1861885736
 C          3.8901454892       -1.8018227997        1.4237114528
 C          3.1455381796       -0.7428316299        0.9175142118
 N          3.5278555098        0.5891065002        1.1360225510
 S          2.3429482300        1.7467237106        1.3942419499
 O          3.0226381600        2.7960381310        2.1302796993
 O          1.1803463997        1.1884718313        2.0480171099
 C          1.9328874105        2.3832582796       -0.2159831807
 C          2.7717633808        2.1709897386       -1.2901867703
 C          2.4381351712        2.7246892878       -2.5159145708
 C          1.2853174114        3.4824808580       -2.6443153217
 C          0.4576444511        3.6920163589       -1.5531974820
 C          0.7829821607        3.1374784597       -0.3262816315
 H          0.1594463405        3.2609195905        0.5455037582
 H         -0.4430568387        4.2767769291       -1.6547227127
 H          1.0254767317        3.9070939474       -3.6013274720
 H          3.0768153814        2.5571865671       -3.3684882105
 H          3.6557296506        1.5682421085       -1.1623903697
 H          4.3160539896        0.7181204805        1.7537160911
 H          4.7813985391       -1.6088223695        2.0012949029
 H          4.0442243887       -3.9244972096        1.5771612943
 H          1.9657782389       -4.3566939000        0.3280308441
 C          0.2729562696       -2.5342233405       -0.7875630277
 H         -0.0051416706       -3.5869318303       -0.6386129870
 C          0.4710784701       -2.2942930816       -2.2717864578
 C          1.1395580501       -3.3509362523       -3.0965976568
 C         -0.3275213398       -3.0898710921       -3.2579625274
 H         -0.6723210295       -2.5990615627       -4.1554421079
 H         -1.0218062501       -3.8193977917       -2.8660926771
 H          1.8065799703       -3.0407546130       -3.8858976269
 H          1.4392948597       -4.2611265120       -2.5995936261
 H          0.6734733204       -1.2593913418       -2.5127065285
 O         -0.4483113896        0.3119750293       -1.3259157399
