  62
        -98.94328846
 C         -1.2722840514       -1.2150193894        0.2642636873
 C         -2.1564330374       -0.7489209026        1.2691016507
 C         -2.8178157906        0.5363048031        1.0070605545
 C         -2.5087383922        1.2158909848       -0.1121114997
 C         -3.1452615642        2.5086422979       -0.5313441344
 C         -4.3738889984        2.2590829402       -1.4174242493
 C         -5.3521519462        1.2340032346       -0.8437952216
 H         -6.1926999317        1.1622274916       -1.5374265432
 H         -4.8705659626        0.2536761388       -0.8218881795
 C         -5.8757267405        1.5714740288        0.5593189529
 H         -6.9541975345        1.4009310059        0.5812632274
 H         -5.7115290708        2.6283991987        0.7725099641
 C         -5.2697037117        0.7284125966        1.6830661836
 H         -5.8585586127        0.8953525604        2.5890550371
 H         -5.3533761444       -0.3321446987        1.4314761777
 C         -3.8052736742        1.0288044362        2.0271514307
 H         -3.6810137811        2.0996628091        2.2011076884
 H         -3.5671199482        0.5006391333        2.9553387101
 H         -4.8891406028        3.2092063097       -1.5695343332
 H         -4.0326535710        1.8976037498       -2.3900570165
 H         -2.4135428993        3.0868541404       -1.0969883355
 H         -3.4329313631        3.0710747490        0.3548282122
 O         -1.6055137835        0.7716364945       -1.0192405921
 C         -0.9628028693       -0.4498564633       -0.8631124799
 O         -0.1620721712       -0.7166696288       -1.7748455152
 O         -2.3752825458       -1.3754891196        2.3414940581
 C         -0.5668214004       -2.5389847266        0.5026524354
 C          0.9110316778       -2.3626967197        0.2638081041
 C          1.6346021214       -3.0628139329       -0.6910202443
 C          2.9805705597       -2.7995620511       -0.8818640931
 C          3.6325568629       -1.8414534548       -0.1278885140
 C          2.9174758159       -1.1393557812        0.8339747343
 C          1.5725911780       -1.4071515484        1.0265462029
 H          1.0150385005       -0.8507825035        1.7709485046
 N          3.5681733944       -0.1501299263        1.6042556543
 S          4.1864911957        1.1584533130        0.7595241252
 O          5.3086201191        0.7173565384       -0.0286655751
 O          4.4668510451        2.1599231097        1.7642825575
 C          2.8654530405        1.7085091300       -0.3029862378
 C          1.9284473293        2.5820811226        0.2116155081
 C          0.8798674055        2.9908028585       -0.5955023768
 C          0.7825190583        2.5135415816       -1.8932695797
 C          1.7242669592        1.6273020814       -2.3905064990
 C          2.7774538354        1.2178403070       -1.5895156919
 H          3.5297695290        0.5313136543       -1.9417063943
 H          1.6330314049        1.2435483887       -3.3932017133
 H         -0.0382269755        2.8235351674       -2.5206746753
 H          0.1406469845        3.6742230174       -0.2077662170
 H          2.0444273234        2.9378911547        1.2233449330
 H          2.9979482719        0.1914176504        2.3656130418
 H          4.6747985798       -1.6110238078       -0.2789318550
 H          3.5288050573       -3.3447608989       -1.6351952917
 H          1.1393854725       -3.7948650061       -1.3072722398
 H         -0.7153901345       -2.7371487693        1.5777267058
 C         -1.1696008687       -3.7216167818       -0.2391065511
 C         -2.6264310453       -3.7441864321       -0.5908577615
 C         -1.5960655616       -3.6425529293       -1.6731230813
 H         -1.4316468679       -4.5047836899       -2.3028781398
 H         -1.4702163108       -2.7001343860       -2.1816275393
 H         -3.1691607327       -4.6706828695       -0.4773485158
 H         -3.2098855663       -2.8656345801       -0.3560593022
 H         -0.7421822089       -4.6640561127        0.0897468702
