  62
        -98.93939683
 C         -0.2127039811       -2.1026830093       -0.6699463737
 C         -0.7901191016       -0.9422009926       -1.2393854128
 C         -2.2367810694       -0.7501152416       -1.0045906122
 C         -2.9005976055       -1.6191879290       -0.2259227621
 C         -4.3456059161       -1.5665828478        0.1882186803
 C         -4.4998621972       -0.8299863813        1.5295073825
 C         -4.6805068597        0.6821169856        1.4132734191
 H         -5.6622520523        0.8949940345        0.9836028630
 H         -4.6688909051        1.0890553199        2.4272648051
 C         -3.6133834561        1.4050218651        0.5869762570
 H         -3.6315233005        2.4583886062        0.8793661491
 H         -2.6250648514        1.0185245170        0.8480092868
 C         -3.8509252063        1.3044023708       -0.9275716655
 H         -3.8016594915        2.3036644197       -1.3659305470
 H         -4.8643800925        0.9419451674       -1.1012900333
 C         -2.8510675794        0.4332833155       -1.7015445290
 H         -3.3294166599        0.0805157863       -2.6219162404
 H         -1.9951551230        1.0436726932       -2.0054929156
 H         -3.6157524391       -1.0445398543        2.1361717644
 H         -5.3661336420       -1.2354165554        2.0569049213
 H         -4.6686797893       -2.6015235531        0.3194920025
 H         -4.9528040836       -1.1052497495       -0.5851529662
 O         -2.2926403985       -2.6908738787        0.3556679407
 C         -0.9540881228       -2.9579467885        0.1475045012
 O         -0.5402550252       -3.9838056841        0.7275617154
 O         -0.1541666591       -0.0963131569       -1.9184702976
 C          1.2556494905       -2.4726085609       -0.8229722956
 C          2.0519287264       -1.8513970394        0.2950475959
 C          2.9471954385       -2.5911837871        1.0577956033
 C          3.6297950147       -1.9978753336        2.1059003052
 C          3.4200461885       -0.6675502902        2.4231511452
 C          2.5272658355        0.0798941963        1.6629571016
 C          1.8696993297       -0.5094846966        0.5951900224
 H          1.1808409496        0.0742767506        0.0082036757
 N          2.2877610044        1.4336661284        1.9344895549
 S          0.7840462490        2.0955105075        1.6058239978
 O          0.7291125147        3.2838156382        2.4350158466
 O         -0.2793308547        1.1410854051        1.8237921552
 C          0.8528710655        2.6068752513       -0.0981244053
 C         -0.3334286826        2.9839517547       -0.6930775132
 C         -0.3176741202        3.4187396795       -2.0079961784
 C          0.8793800422        3.4676398038       -2.7033439436
 C          2.0627608379        3.0908458953       -2.0895314200
 C          2.0549740134        2.6602249700       -0.7726720415
 H          2.9599124024        2.3533725326       -0.2744326438
 H          2.9929486841        3.1235102729       -2.6339807398
 H          0.8880431396        3.7955974080       -3.7309337245
 H         -1.2397060740        3.7082491355       -2.4871527207
 H         -1.2452715444        2.9150491318       -0.1219233134
 H          2.6878975174        1.7902748304        2.7892771787
 H          3.9356539794       -0.2114955349        3.2544678656
 H          4.3210086785       -2.5820161624        2.6944048423
 H          3.0891592886       -3.6396860721        0.8404328631
 H          1.2961013634       -3.5659648469       -0.6902502705
 C          1.8177722905       -2.1609432764       -2.2024994952
 C          2.7611756918       -1.0324208628       -2.4759955967
 C          3.2604379290       -2.4438245694       -2.5027974189
 H          3.5127157135       -2.8892024956       -3.4531506818
 H          3.8827470643       -2.7686275765       -1.6824681018
 H          2.6420898420       -0.5006078932       -3.4070608214
 H          3.0521229398       -0.4015213334       -1.6513342980
 H          1.1031321392       -2.3892214092       -2.9864964886
