  62
        -98.93812123
 C         -1.7399091148       -0.3677168241       -0.5175704511
 C         -2.9941035490       -0.8694526907       -0.9324939263
 C         -4.1266790022       -0.6626401199       -0.0129438101
 C         -3.9216367168       -0.0201026419        1.1523015166
 C         -4.8638085605        0.2955272158        2.2953560650
 C         -6.3754106669        0.1779888389        2.1190319787
 C         -6.9881892175        1.1945256076        1.1562636076
 H         -8.0466538621        0.9541384731        1.0345645768
 H         -6.9228959041        2.1863974830        1.6106771388
 C         -6.3351638851        1.2753937538       -0.2213163089
 H         -5.3022174220        1.6139449536       -0.1184526078
 H         -6.8669653680        2.0364978390       -0.7987916970
 C         -6.3545085293       -0.0193313893       -1.0314856195
 H         -6.0079865718        0.2192229177       -2.0406979478
 H         -7.3785752460       -0.3896052756       -1.1094179678
 C         -5.4628967778       -1.1515838200       -0.4924999208
 H         -5.9685148131       -1.7165933926        0.2871286220
 H         -5.2591291188       -1.8417597104       -1.3166031723
 H         -6.8172366382        0.3496489048        3.1044651133
 H         -6.6438387880       -0.8331325822        1.8272074780
 H         -4.6190825874        1.3154494299        2.6086447468
 H         -4.5601356258       -0.3597911495        3.1194478709
 O         -2.6878470820        0.4392554417        1.5134914822
 C         -1.5757059678        0.2892541936        0.7005556281
 O         -0.5300691814        0.7731188233        1.1690351021
 O         -3.1619687575       -1.4772706870       -2.0247545804
 C         -0.5417801296       -0.5375864434       -1.4303935862
 C          0.5770342997       -1.2866096313       -0.7485533063
 C          0.2897157954       -2.2985433943        0.1626440057
 C          1.3015431665       -2.9804908474        0.8120701492
 C          2.6283881036       -2.6813041151        0.5562515386
 C          2.9275384843       -1.6950001161       -0.3713648951
 C          1.9091880893       -1.0055882688       -1.0180320565
 H          2.1637508864       -0.2368325515       -1.7316771029
 N          4.2852826591       -1.3927062924       -0.6295285800
 S          5.0646776542       -0.5068944596        0.5625190955
 O          6.4286096928       -0.3485718051        0.1114976561
 O          4.8768873124       -1.1692406427        1.8266247562
 C          4.2347279721        1.0713125756        0.5385161251
 C          4.8162989687        2.1264521270       -0.1378899876
 C          4.1221846129        3.3208681231       -0.2391467183
 C          2.8556540486        3.4325973252        0.3162084289
 C          2.2832893169        2.3630790745        0.9874016205
 C          2.9793098252        1.1700129016        1.1037561285
 H          2.5495226156        0.3267998393        1.6198576583
 H          1.2886668638        2.4238860237        1.4001102320
 H          2.3084575521        4.3580147704        0.2245715111
 H          4.5639125559        4.1570252228       -0.7572839203
 H          5.7983382513        1.9913317552       -0.5619723880
 H          4.4269272343       -0.9310576730       -1.5181695561
 H          3.4307357225       -3.1850824851        1.0696126821
 H          1.0551271139       -3.7524393405        1.5256552493
 H         -0.7443854462       -2.5389513879        0.3688136215
 H         -0.9013949593       -1.1503626173       -2.2712843107
 C         -0.1022056128        0.8128002790       -1.9633007780
 C          0.4394496174        0.9491599375       -3.3544908306
 C         -0.9257377231        1.4726298984       -3.0268629440
 H         -1.0739291763        2.5407802180       -2.9777483483
 H         -1.7840590500        0.9295030388       -3.3949367500
 H          1.2299438085        1.6631026019       -3.5322337187
 H          0.5040807379        0.0565589215       -3.9586848831
 H          0.3149762415        1.4459847444       -1.1878089059
