  62
        -98.93842097
 C         -1.7470288059       -1.1054040555        0.1864314153
 C         -1.9812040199        0.2225105320       -0.2393292514
 C         -3.2766997037        0.8196818152        0.1396736587
 C         -4.1508535526        0.1111387075        0.8770284152
 C         -5.5051093518        0.4777315240        1.4470294056
 C         -6.2670309685        1.6976191338        0.9349982979
 C         -6.7389280767        1.5967001345       -0.5149654775
 H         -7.1856623307        2.5533326979       -0.7948759233
 H         -7.5204840898        0.8350160384       -0.5744145600
 C         -5.6625054699        1.2336334742       -1.5348549900
 H         -6.1333317055        1.2063015187       -2.5213327575
 H         -5.2876786185        0.2286403990       -1.3304291439
 C         -4.4809391734        2.1987106221       -1.6106099572
 H         -4.8462754925        3.2150478165       -1.7702903047
 H         -3.8831226563        1.9173607592       -2.4815930489
 C         -3.5451713422        2.1996169821       -0.3888835359
 H         -3.9236327564        2.8447576470        0.4004862759
 H         -2.5787805074        2.6027292728       -0.7051487104
 H         -5.6793043651        2.5991659973        1.0813648538
 H         -7.1555514904        1.7946979746        1.5649514172
 H         -6.1297444134       -0.4122209637        1.3202480729
 H         -5.3518020885        0.5943216290        2.5258054314
 O         -3.8693053132       -1.1577910698        1.2928424177
 C         -2.6920055292       -1.7941654879        0.9528962586
 O         -2.6024114423       -2.9614431016        1.3827520987
 H          0.6343774056        0.5380814740        0.2175642602
 C          1.1291296091       -0.2221405769        0.8039091536
 C          0.6666360595       -1.5292466246        0.7496082448
 C          1.3170353243       -2.4940483560        1.5093548136
 C          2.4027191076       -2.1577008599        2.3001322932
 C          2.8597869203       -0.8527010717        2.3522152281
 C          2.2097232511        0.1182695443        1.6028605518
 N          2.6779332700        1.4535704894        1.6360958157
 S          4.1609243758        1.6754183975        0.8845658675
 O          5.1803202319        1.0275628425        1.6699674112
 O          4.3044392092        3.1015910639        0.6998408996
 C          3.9801145486        0.8546841373       -0.6879646002
 C          3.4069931343        1.5515599049       -1.7325914756
 C          3.1826334688        0.8962300426       -2.9321411775
 C          3.5231858205       -0.4414308307       -3.0598723696
 C          4.0907665530       -1.1295183052       -1.9986970415
 C          4.3212077329       -0.4782630816       -0.7979097396
 H          4.7620208006       -0.9761233444        0.0500552825
 H          4.3494349725       -2.1711231071       -2.1000193117
 H          3.3459444485       -0.9488934427       -3.9954088422
 H          2.7368774401        1.4273943902       -3.7578972368
 H          3.1578295038        2.5915385033       -1.5930430097
 H          2.0128421008        2.0996330666        1.2322893869
 H          3.7125594507       -0.5731336063        2.9494852651
 H          2.8975569841       -2.9191991105        2.8835086560
 H          0.9605026159       -3.5134081967        1.4845568132
 C         -0.4900890641       -1.8937651157       -0.1489124846
 H         -0.7461308892       -2.9440247616        0.0438245121
 C         -0.0757137121       -1.7613960007       -1.6029735378
 C          0.7071821740       -2.8689806174       -2.2373972707
 C         -0.7211483382       -2.6402192900       -2.6295778210
 H         -0.9324411176       -2.2243913182       -3.6031439653
 H         -1.4653984009       -3.3447787500       -2.2866654246
 H          0.9321142315       -3.7333580926       -1.6314396210
 H          1.4808003325       -2.6106354362       -2.9426444281
 H          0.1595874190       -0.7457677680       -1.8924213198
 O         -1.1590376260        0.9131129401       -0.9007152350
