  62
        -98.94330233
 C          1.2425856832        1.3474169147       -0.8259746134
 C          0.6895150596        2.1664268293        0.1870921103
 C         -0.7036720782        2.5906412700       -0.0143054677
 C         -1.3706395691        2.1637589938       -1.1010250932
 C         -2.8302840782        2.3947404474       -1.3726550959
 C         -3.6753725449        1.4309997388       -0.5134556249
 C         -4.5554835811        2.1221989865        0.5272254538
 H         -5.4071849022        2.5874580546        0.0255774931
 H         -4.9429597202        1.3439765629        1.1887015085
 C         -3.8601096263        3.1937625322        1.3726829592
 H         -4.4991636551        3.3823364222        2.2380397748
 H         -3.8112848794        4.1286031934        0.8114516388
 C         -2.4498778390        2.8454488084        1.8681903654
 H         -2.3461109719        3.2177409096        2.8898972702
 H         -2.3054490302        1.7643852364        1.9087586531
 C         -1.3115380366        3.4721715367        1.0398816433
 H         -1.6567045484        4.4057573779        0.5860644165
 H         -0.4844431643        3.7159638390        1.7132697352
 H         -3.0019542507        0.7389924034       -0.0014323640
 H         -4.3178956272        0.8297328333       -1.1599260846
 H         -3.0876915468        3.4285216136       -1.1527973084
 H         -3.0015441053        2.2093334813       -2.4335559954
 O         -0.8043804505        1.3803080625       -2.0557827503
 C          0.5028765740        0.9348143876       -1.9320282632
 O          0.8817367844        0.1880166342       -2.8572168138
 H          0.8054260381       -1.0530247160       -0.0730273506
 C          1.5352622803       -0.9899344604        0.7210384391
 C          2.6031227543       -0.1105286662        0.5891484454
 C          3.5474490690       -0.0571401310        1.6046063029
 C          3.3938121876       -0.8370875883        2.7389569464
 C          2.2952195682       -1.6624590610        2.8931144891
 C          1.3533606351       -1.7355106105        1.8720704871
 N          0.2246465934       -2.5611142063        1.9744390013
 S         -1.2068505955       -2.1197801812        1.2280247119
 O         -1.4162145761       -0.6908356112        1.2350302804
 O         -2.2160921981       -2.9032198243        1.9120047504
 C         -1.0414194039       -2.7328285284       -0.4340476639
 C         -0.4906527689       -3.9853251316       -0.6219295775
 C         -0.3801543165       -4.4801843229       -1.9109408167
 C         -0.8218811361       -3.7210213371       -2.9843152616
 C         -1.3797058943       -2.4694083240       -2.7786149112
 C         -1.4940369695       -1.9703154705       -1.4911833599
 H         -1.9069390967       -0.9929054779       -1.2968843574
 H         -1.7126325294       -1.8699004386       -3.6104756959
 H         -0.7289513720       -4.1037150330       -3.9884434284
 H          0.0534598486       -5.4533631182       -2.0762095266
 H         -0.1547421771       -4.5437754648        0.2357286826
 H          0.0744834688       -2.9818017130        2.8794676830
 H          2.1605247899       -2.2406217567        3.7945237239
 H          4.1299676367       -0.7825143056        3.5266790191
 H          4.3922012892        0.6063234013        1.5181347194
 C          2.6313974259        0.7560126463       -0.6480231065
 H          2.8024410692        0.1092314214       -1.5209670921
 C          3.6926018529        1.8337380639       -0.6180402397
 C          5.0927277064        1.5220945443       -1.0519679395
 C          4.2125286781        2.3734831614       -1.9153635234
 H          4.4222660123        3.4301191574       -1.9864445142
 H          3.8158292185        1.9452474942       -2.8244755220
 H          5.9112979403        1.9968064322       -0.5323800370
 H          5.3018774667        0.5154291099       -1.3807247563
 H          3.5498481204        2.5358842220        0.1948840841
 O          1.3258538133        2.5252292641        1.2131958021
