  62
        -98.93736918
 C         -1.7958752168       -1.0049580395       -0.2056108198
 C         -2.9401592475       -1.1026982201        0.6301196202
 C         -4.1765071017       -0.4902733015        0.1296766067
 C         -4.1770621607        0.1112146440       -1.0729991865
 C         -5.3555292945        0.7393333582       -1.7687892421
 C         -5.9702207835        1.9771790634       -1.0876883552
 C         -7.1509244789        1.6671275059       -0.1591122419
 H         -7.9137661337        2.4368821934       -0.2926405281
 H         -7.6019236562        0.7231356989       -0.4675485030
 C         -6.8272373698        1.6143972437        1.3370652500
 H         -6.7349710107        2.6340597201        1.7181888214
 H         -7.6742787436        1.1492081514        1.8459608843
 C         -5.5494313180        0.8663039389        1.7179742472
 H         -4.6781929237        1.4813475045        1.4794489676
 H         -5.5433775405        0.7325255787        2.8015495007
 C         -5.3764282794       -0.5022354067        1.0311307387
 H         -6.2725888365       -0.7686854840        0.4727073057
 H         -5.1949692482       -1.2745634010        1.7811861858
 H         -5.1935096215        2.5199656950       -0.5493825999
 H         -6.3271596947        2.6312221807       -1.8849578407
 H         -6.1284807283       -0.0210321108       -1.9024658224
 H         -4.9915287631        1.0217603015       -2.7588269743
 O         -3.0620400411        0.1804459655       -1.8472740383
 C         -1.8499179940       -0.3564508893       -1.4390362319
 O         -0.9335786546       -0.1854580218       -2.2694041464
 O         -2.9299875607       -1.6930096412        1.7427485635
 C         -0.5204938003       -1.6469813358        0.3147250165
 C          0.4284451664       -0.6212382455        0.8865690607
 C          0.7464990774       -0.6192391458        2.2395013808
 C          1.6412365227        0.3035567782        2.7539764678
 C          2.2374541301        1.2408283524        1.9299326047
 C          1.9191039959        1.2508551486        0.5780423955
 C          1.0275397373        0.3219534047        0.0633249441
 H          0.7789680191        0.3413431837       -0.9872998366
 N          2.5360584715        2.1922403647       -0.2734501710
 S          4.2107990928        2.1064097368       -0.3206334481
 O          4.7509595599        2.7598963554        0.8452318455
 O          4.5982946744        2.6645158740       -1.5966713536
 C          4.5617875878        0.3588209428       -0.2570530060
 C          5.0330360137       -0.2066436373        0.9100848364
 C          5.2191630936       -1.5787801922        0.9607944686
 C          4.9279929411       -2.3570735169       -0.1484239477
 C          4.4581980351       -1.7729874450       -1.3148061845
 C          4.2676622873       -0.4023317618       -1.3707897512
 H          3.9051484362        0.0854521552       -2.2618418406
 H          4.2348567125       -2.3784932707       -2.1787837482
 H          5.0684099584       -3.4256723553       -0.1049154735
 H          5.5853920066       -2.0362965863        1.8655271926
 H          5.2469896604        0.4352534873        1.7486319613
 H          2.1629859627        2.1678990007       -1.2123310668
 H          2.9428521356        1.9633253807        2.3077824493
 H          1.8775531374        0.2924092769        3.8069366345
 H          0.2781827012       -1.3423341744        2.8911016130
 H         -0.8475173983       -2.2940197974        1.1394095150
 C          0.1853855067       -2.5053947861       -0.7177657309
 C          1.1590871341       -3.5438905360       -0.2511931475
 C         -0.1618698447       -3.9585053046       -0.8251110413
 H         -0.1832095889       -4.4110245772       -1.8051829658
 H         -0.9142318944       -4.3434318505       -0.1521748486
 H          2.0499786533       -3.7115133680       -0.8355317549
 H          1.3045995842       -3.6481736986        0.8130278901
 H          0.4088677751       -1.9793266156       -1.6364413149
