  62
        -98.94330129
 C         -1.2175494045       -1.3645458679       -0.8289337502
 C         -0.6503823015       -2.1799922391        0.1791903903
 C          0.7504406755       -2.5772876183       -0.0237832099
 C          1.4101819124       -2.1317809073       -1.1074276796
 C          2.8737473399       -2.3356501809       -1.3797395954
 C          3.7017531902       -1.3615041504       -0.5156650276
 C          4.5932920529       -2.0421153403        0.5223141524
 H          5.4531245930       -2.4902316372        0.0189298683
 H          4.9670053127       -1.2602037446        1.1873608920
 C          3.9166234795       -3.1294989384        1.3627984080
 H          3.8854666194       -4.0628477761        0.7978304175
 H          4.5580934085       -3.3098048828        2.2281272602
 C          2.4997698348       -2.8089524771        1.8581344862
 H          2.4017125163       -3.1869710270        2.8782961923
 H          2.3356061564       -1.7308572874        1.9026459737
 C          1.3741019264       -3.4531276296        1.0258669722
 H          1.7373013044       -4.3774152348        0.5671481265
 H          0.5514188718       -3.7163689318        1.6973106349
 H          3.0162771116       -0.6834930367       -0.0009435944
 H          4.3342357356       -0.7464165445       -1.1590571465
 H          3.1491945098       -3.3658225968       -1.1648187399
 H          3.0419543286       -2.1421038574       -2.4396755801
 O          0.8303947543       -1.3527851681       -2.0576486053
 C         -0.4845234191       -0.9311559997       -1.9315341843
 O         -0.8760191995       -0.1846421666       -2.8516700755
 H         -0.8256695806        1.0434310205       -0.0692214694
 C         -1.5503202417        0.9609396486        0.7278113044
 C         -2.6009773821        0.0612048794        0.5951913759
 C         -3.5390090543       -0.0177774109        1.6147733840
 C         -3.3953886436        0.7577736280        2.7534562599
 C         -2.3129630642        1.6042597508        2.9077052547
 C         -1.3778356651        1.7028147666        1.8826488214
 N         -0.2651606244        2.5501208729        1.9844183831
 S          1.1708156447        2.1381448960        1.2296985185
 O          1.4076386595        0.7134340360        1.2338722126
 O          2.1684777047        2.9397982999        1.9096042529
 C          0.9857888023        2.7497212815       -0.4309064208
 C          1.4645315685        2.0044830945       -1.4888951301
 C          1.3356690837        2.5021126215       -2.7755102848
 C          0.7374152189        3.7351551334       -2.9796362714
 C          0.2694874655        4.4772215400       -1.9054401245
 C          0.3945403963        3.9838613171       -0.6171720286
 H          0.0387313998        4.5292285964        0.2408812153
 H         -0.1958818668        5.4358575022       -2.0694095545
 H          0.6331064802        4.1164771068       -3.9831691576
 H          1.6892898791        1.9156415081       -3.6081156007
 H          1.9086935657        1.0406270266       -1.2958344825
 H         -0.1185919102        2.9683890847        2.8911661133
 H         -2.1854926153        2.1792445709        3.8121890515
 H         -4.1262575095        0.6831256367        3.5444472205
 H         -4.3705260874       -0.6977334069        1.5281490451
 C         -2.6163439029       -0.7981738133       -0.6471812243
 H         -2.7986758260       -0.1490067343       -1.5160304669
 C         -3.6594698842       -1.8934657575       -0.6230690126
 C         -5.0657716918       -1.6011186764       -1.0504587012
 C         -4.1744520185       -2.4310853861       -1.9232420797
 H         -4.3672752084       -3.4903646874       -2.0023473020
 H         -3.7875156503       -1.9891181613       -2.8299853113
 H         -5.8749438102       -2.0932517218       -0.5323672123
 H         -5.2922369195       -0.5953473011       -1.3703542821
 H         -3.5029740256       -2.5996579658        0.1837788667
 O         -1.2807495586       -2.5571012462        1.2024124948
