  62
        -98.93907269
 C         -2.4531200893       -0.8597800414        0.8166859495
 C         -3.3056491293       -0.5637142106       -0.2750243102
 C         -4.0739382092        0.6861642793       -0.1658142493
 C         -3.9131304692        1.4709472486        0.9147246113
 C         -4.5909955791        2.7931866284        1.1251950522
 C         -3.7427495291        3.9481233488        0.5744780530
 C         -3.2392339891        3.7206113998       -0.8509763372
 H         -2.6805554591        4.6118784700       -1.1447136966
 H         -2.5345916392        2.8854629998       -0.8528854778
 C         -4.3461765892        3.4497865306       -1.8794043273
 H         -4.1456123692        4.0427434612       -2.7742124469
 H         -5.3083593892        3.7765175203       -1.4833132071
 C         -4.4521642093        1.9907673709       -2.3269299184
 H         -3.4683736093        1.6291098111       -2.6372810887
 H         -5.1061303893        1.9501891515       -3.2021382084
 C         -5.0180019993        1.0143515202       -1.2881929690
 H         -5.9621422192        1.3990216399       -0.8971748387
 H         -5.2166088393        0.0673137805       -1.7983894797
 H         -4.3394990990        4.8613456688        0.6097573037
 H         -2.8762222791        4.0825459283        1.2259264931
 H         -5.5633932391        2.7777954588        0.6369347922
 H         -4.7348351391        2.9388795877        2.1971111223
 O         -3.0623886491        1.1674998478        1.9286471910
 C         -2.3063064392        0.0092685878        1.8990124802
 O         -1.5477724392       -0.1329199529        2.8809166900
 O         -3.4320863194       -1.2983489899       -1.2883134107
 C         -1.6050897993       -2.1222298115        0.8302827086
 C         -0.5054257994       -1.9734592108       -0.1942027013
 C         -0.4671537294       -2.6732680299       -1.3918618018
 C          0.5637726205       -2.4586767793       -2.2914935617
 C          1.5720549706       -1.5535417296       -2.0173011211
 C          1.5461329807       -0.8520071004       -0.8177782906
 C          0.5133699407       -1.0683930310        0.0817511493
 H          0.4849115207       -0.5220741317        1.0168752297
 N          2.5638548907        0.0806888593       -0.5295250000
 S          4.1518437107       -0.4546167006       -0.7635591704
 O          4.4602246506       -0.3619774296       -2.1683610004
 O          4.3279487706       -1.7587929310       -0.1638535114
 C          5.0757663608        0.7736617587        0.1371871604
 C          5.4619949308        0.5091394878        1.4373880602
 C          6.1696723209        1.4748006773        2.1358035909
 C          6.4744923309        2.6825755577        1.5263052717
 C          6.0790082309        2.9336126986        0.2207374719
 C          5.3722867008        1.9720914792       -0.4837366388
 H          5.0544505508        2.1182027799       -1.5027967486
 H          6.3204829009        3.8729427290       -0.2499449574
 H          7.0267763110        3.4314217173        2.0717121822
 H          6.4805611909        1.2813430665        3.1498905907
 H          5.2123602508       -0.4474545025        1.8682013195
 H          2.4585047908        0.4668931987        0.3995027303
 H          2.3830024206       -1.3877733091       -2.7079152110
 H          0.5822009705       -3.0059800187       -3.2220753621
 H         -1.2484349195       -3.3767402397       -1.6266895923
 H         -1.1315297093       -2.1526851422        1.8217186686
 C         -2.4448766194       -3.3690811513        0.6588266978
 C         -1.8717936894       -4.6976330016        1.0477341368
 C         -2.9545168694       -4.0765233222        1.8768425173
 H         -3.9426613194       -4.5102178821        1.8444635270
 H         -2.6896210593       -3.6666907029        2.8408593775
 H         -2.1153310695       -5.5609212712        0.4475385162
 H         -0.8688720794       -4.7095978819        1.4477048367
 H         -3.1006275294       -3.3284347807       -0.2015792922
