  62
        -98.94725359
 C          0.9476699006        1.5530576725       -0.8578364964
 C          2.2488044604        1.5280900318       -0.2920241848
 C          3.0506418159        0.3282527936       -0.5459060549
 C          2.5373594647       -0.6669504749       -1.2902430401
 C          3.2117144383       -1.9714687552       -1.6166631113
 C          3.0639259169       -3.0241565209       -0.5091871270
 C          3.9323223421       -2.7883435244        0.7271871836
 H          3.9217189774       -3.7140053517        1.3064151891
 H          4.9632404564       -2.6057425742        0.4206016469
 C          3.4468737193       -1.6433511743        1.6274852986
 H          2.4009779973       -1.4180613450        1.4016349060
 H          3.4766469527       -1.9670550944        2.6711443888
 C          4.2748549538       -0.3611363846        1.5315722044
 H          3.8065566447        0.3928453082        2.1696576725
 H          5.2820217322       -0.5479120038        1.9125875022
 C          4.3903721255        0.2213103912        0.1172821885
 H          4.8027734545        1.2304317249        0.1974350994
 H          5.0653549739       -0.3861481678       -0.4856084544
 H          2.0156898938       -3.0678107521       -0.2008204595
 H          3.3297123470       -3.9937639852       -0.9375725509
 H          2.7369498771       -2.3517542775       -2.5238307064
 H          4.2691796952       -1.8023528471       -1.8219895537
 O          1.3090189932       -0.5883091240       -1.8586125640
 C          0.4675694095        0.4922611944       -1.6264275479
 O         -0.6466190966        0.3698653908       -2.1731862208
 O          2.7182030903        2.4737678910        0.3983719988
 C          0.0696321746        2.7300828538       -0.4662825392
 C         -0.6747867751        2.3778855668        0.8019963135
 C         -0.7066591105        3.2372326750        1.8934764877
 C         -1.3282617433        2.8548836776        3.0696891339
 C         -1.8910491890        1.5969894977        3.1942353033
 C         -1.8655818084        0.7328225227        2.1057994276
 C         -1.3011463797        1.1453953573        0.9099479077
 H         -1.3097401419        0.4721533253        0.0687854966
 N         -2.3874557035       -0.5671656855        2.1792705060
 S         -1.5786199020       -1.8006367268        1.3763854049
 O         -1.9494664287       -3.0000142145        2.1033322019
 O         -0.1594263349       -1.5460720566        1.2850004509
 C         -2.3249949149       -1.8828417609       -0.2354414774
 C         -3.6391188432       -1.4934812031       -0.3980292636
 C         -4.2223339412       -1.6202804285       -1.6480190038
 C         -3.4895543498       -2.1379572659       -2.7047985234
 C         -2.1732560583       -2.5289080692       -2.5229568882
 C         -1.5832379157       -2.4013103422       -1.2763746264
 H         -0.5544423506       -2.6748360639       -1.1007298213
 H         -1.5980728948       -2.9206690489       -3.3464995473
 H         -3.9440204005       -2.2314833379       -3.6786706222
 H         -5.2448334158       -1.3111159746       -1.7952390151
 H         -4.1767953373       -1.0879137243        0.4430671136
 H         -2.6974030558       -0.8578957341        3.0952764049
 H         -2.3357658821        1.2814061310        4.1256852154
 H         -1.3475355208        3.5315926162        3.9104937229
 H         -0.2199354769        4.1987564485        1.8260933547
 H          0.7615168364        3.5501815433       -0.2289169621
 C         -0.8864008007        3.2026288760       -1.5418347771
 C         -1.3759454938        4.6185490311       -1.5106676800
 C         -0.4090360108        4.1826824163       -2.5694568935
 H         -0.7617636829        4.0747369273       -3.5837741619
 H          0.6140303893        4.5224277566       -2.4975943576
 H         -2.3976403271        4.8144912894       -1.7968384749
 H         -1.0083400275        5.2604425836       -0.7246551108
 H         -1.5761195023        2.4357112947       -1.8683479676
