  62
        -98.93222637
 C         -2.6209332577       -1.2154710202        0.2249036594
 C         -3.0448570261       -0.3048206362        1.2242310152
 C         -4.2721567579        0.4625262321        0.9546025287
 C         -4.9226740063        0.2578452425       -0.2036532520
 C         -6.1570430166        0.9578938847       -0.7014361835
 C         -5.7826258436        2.1633186734       -1.5803949236
 C         -5.5543065103        3.4691070273       -0.8201560981
 H         -6.5120322636        3.8405270973       -0.4494997310
 H         -5.1747287154        4.2003845528       -1.5374429731
 C         -4.5766547746        3.3798973559        0.3545239380
 H         -4.2167527212        4.3882671601        0.5679494308
 H         -3.7095430591        2.7819994416        0.0675931286
 C         -5.2130037488        2.8001430311        1.6265869229
 H         -6.2953197008        2.7700154369        1.5025346772
 H         -5.0166725943        3.4694593622        2.4668514150
 C         -4.7019670630        1.4123615199        2.0393050619
 H         -5.4642483972        0.9193715022        2.6522386647
 H         -3.8175967199        1.5240509814        2.6745533714
 H         -6.5820822253        2.3298150787       -2.3052329537
 H         -4.8820014996        1.9013325221       -2.1415503482
 H         -6.7920916501        1.2566190197        0.1272451913
 H         -6.6971293762        0.2343170167       -1.3157047975
 O         -4.4830559100       -0.6255416387       -1.1392463340
 C         -3.3276959395       -1.3747496070       -0.9677736446
 O         -3.0675504543       -2.1178070762       -1.9304999390
 O         -2.4189716163       -0.1427632934        2.3076741157
 C         -1.3604455448       -2.0076525043        0.5216996779
 C         -0.1380446969       -1.2965112113       -0.0001026261
 C         -0.0519136119       -0.8798924696       -1.3249454692
 C          1.0844602758       -0.2389087643       -1.7839039606
 C          2.1509253146        0.0060739712       -0.9360861044
 C          2.0743578063       -0.4016996811        0.3885139190
 C          0.9337232628       -1.0508937153        0.8453232438
 H          0.8729475508       -1.3571877171        1.8811619239
 N          3.1435121470       -0.1384909418        1.2585242384
 S          4.7037171438       -0.5063910056        0.7628442081
 O          4.7126705448       -1.6103172682       -0.1682463866
 O          5.4522329536       -0.6901051071        1.9866691729
 C          5.2614978783        0.9805580686       -0.0412816325
 C          5.7761280622        0.9186246115       -1.3213757194
 C          6.2181285429        2.0866710599       -1.9231541397
 C          6.1393975819        3.2888463238       -1.2370709258
 C          5.6217183655        3.3335832793        0.0489984635
 C          5.1790218527        2.1695940731        0.6565629191
 H          4.7729826828        2.1625162020        1.6543575330
 H          5.5615107171        4.2705240918        0.5789821908
 H          6.4832850634        4.1964985813       -1.7074380447
 H          6.6209160825        2.0540464811       -2.9227778992
 H          5.8131035988       -0.0376004591       -1.8187497808
 H          2.9826583153       -0.4317748284        2.2110708165
 H          3.0365779432        0.5067863960       -1.2915624094
 H          1.1401210633        0.0761709733       -2.8149627059
 H         -0.8821398904       -1.0701996496       -1.9885429099
 H         -1.2907834838       -2.0125051679        1.6213932700
 C         -1.4402198641       -3.4602426550        0.0732226750
 C         -0.6443099517       -4.0324672156       -1.0569283533
 C         -0.3003283734       -4.3946364497        0.3547872428
 H         -0.5200123417       -5.3913115344        0.7063285173
 H          0.6015905809       -3.9687384114        0.7697953734
 H         -1.1260647728       -4.7677823375       -1.6828846226
 H          0.0291116161       -3.3825229669       -1.5926809340
 H         -2.4392011447       -3.8645732667        0.2025844787
