  62
        -98.94416900
 C         -2.6419671429       -1.0919872572        0.1925785631
 C         -2.7414916302       -0.2845817580       -0.9664908982
 C         -3.5503148790        0.9353103426       -0.8271511761
 C         -4.1377253869        1.2072781462        0.3524627812
 C         -4.9360221771        2.4434263279        0.6481061418
 C         -4.0444712828        3.5575121781        1.2148546709
 C         -2.7730348637        3.8050104107        0.4026181484
 H         -2.1308246835        2.9232801091        0.4676932213
 H         -2.2368266875        4.6278242404        0.8807045270
 C         -3.0186915977        4.1428191727       -1.0746309246
 H         -2.3833725267        4.9869625363       -1.3505441786
 H         -4.0536134112        4.4567456785       -1.2146823632
 C         -2.6978983875        3.0061150451       -2.0470388222
 H         -1.6932730239        2.6241268539       -1.8474916916
 H         -2.6965590023        3.4162347047       -3.0602860767
 C         -3.6735330193        1.8225127940       -2.0338296222
 H         -3.4386112808        1.1897567736       -2.8945744635
 H         -4.6969736469        2.1867231113       -2.1426614412
 H         -3.7532049849        3.2844470470        2.2320337198
 H         -4.6304134972        4.4769474998        1.2654438506
 H         -5.7001630231        2.1916902723        1.3854061020
 H         -5.4227239481        2.7818971906       -0.2643765246
 O         -4.0242318944        0.4026740676        1.4412549168
 C         -3.2636542491       -0.7549228300        1.3935987022
 O         -3.2159669953       -1.3850778850        2.4708222265
 O         -2.1827892208       -0.5638558329       -2.0581843890
 C         -1.8109652824       -2.3610629660        0.1553191889
 C         -0.3816177757       -2.0401083405       -0.2126360463
 C          0.3642927140       -2.7997847156       -1.1039900515
 C          1.6768639488       -2.4616236584       -1.3859053967
 C          2.2734194919       -1.3664936926       -0.7894478505
 C          1.5419156765       -0.6079889610        0.1154020963
 C          0.2302933317       -0.9536806710        0.4008728917
 H         -0.3368559237       -0.3633230828        1.1117090752
 N          2.1363855553        0.5131688164        0.7222858458
 S          3.6222250773        0.3038060413        1.4782738467
 O          3.7792634736       -1.0454692224        1.9701453986
 O          3.6953328761        1.3598537289        2.4646150022
 C          4.8085441362        0.6284323601        0.1913983277
 C          5.7870436501       -0.3034412392       -0.0941408548
 C          6.7076801617       -0.0233139643       -1.0921170091
 C          6.6337293214        1.1768371529       -1.7823546712
 C          5.6459010825        2.1030120921       -1.4817132432
 C          4.7236297146        1.8301135046       -0.4842037236
 H          3.9429096624        2.5232317183       -0.2182716165
 H          5.5909722438        3.0350256150       -2.0209375629
 H          7.3500630401        1.3921283766       -2.5594120985
 H          7.4765188119       -0.7416182411       -1.3270917113
 H          5.8011392866       -1.2256235096        0.4645725281
 H          1.5086640794        1.0283400798        1.3224248127
 H          3.2923173504       -1.0955790920       -1.0129935791
 H          2.2423080671       -3.0581387826       -2.0853475723
 H         -0.0832947944       -3.6557327006       -1.5815533935
 H         -1.8132922319       -2.7575523361        1.1820048915
 C         -2.4564819850       -3.3802666822       -0.7608887552
 C         -2.3055362049       -4.8459502483       -0.4890435871
 C         -3.6218020115       -4.1710561823       -0.2498730639
 H         -4.4400690485       -4.3782805272       -0.9229587787
 H         -3.9307192201       -3.9935152834        0.7704004576
 H         -2.2235526983       -5.5208315440       -1.3276852114
 H         -1.7234377160       -5.1380624939        0.3721085684
 H         -2.4901261736       -3.0483689957       -1.7920599946
