  62
        -98.94017978
 C         -1.7702281441       -0.8641433173        0.5040891098
 C         -1.7552600625        0.3495308350        1.2323370033
 C         -2.1845985598        1.5649931281        0.5198123373
 C         -2.4974183452        1.4851456222       -0.7865444049
 C         -2.9941047981        2.5371843001       -1.7560074613
 C         -2.8567109830        4.0234060909       -1.4360272334
 C         -1.4177473135        4.5320983886       -1.3792509620
 H         -0.9805168912        4.4625540688       -2.3786398828
 H         -1.4411008864        5.5873780368       -1.0971009451
 C         -0.4971225483        3.7828073003       -0.4188072194
 H          0.4795383207        4.2758138693       -0.4387239467
 H         -0.3390080293        2.7635376061       -0.7818168937
 C         -0.9743014962        3.7461663630        1.0327988731
 H         -1.2127880754        4.7596039212        1.3615192711
 H         -0.1416073258        3.3873127391        1.6418897786
 C         -2.1866728538        2.8389092757        1.3165209315
 H         -2.1470967302        2.5408729812        2.3684037601
 H         -3.1228199209        3.3723970595        1.1639147171
 H         -3.3662178602        4.5617102238       -2.2399871407
 H         -3.3781745157        4.2631526448       -0.5139790785
 H         -2.4812837349        2.3266699711       -2.7002525523
 H         -4.0543146344        2.3143726444       -1.9225925751
 O         -2.4519612465        0.3024024416       -1.4619405403
 C         -2.0652414881       -0.8841929387       -0.8598278922
 O         -2.0444768588       -1.8557454451       -1.6387251152
 O         -1.3967708522        0.4206113770        2.4393118231
 C         -1.2764962073       -2.1208135063        1.2043524226
 C         -0.1953694782       -2.7367584253        0.3525332235
 C         -0.2149171237       -4.0319744974       -0.1433744130
 C          0.7866150969       -4.4609740416       -0.9986504045
 C          1.8003457512       -3.6088855973       -1.3958702843
 C          1.8325854986       -2.3113754628       -0.8945389416
 C          0.8643552905       -1.9078815609        0.0059180083
 H          0.8887246207       -0.9035829551        0.3978420598
 N          2.8344950523       -1.4066352663       -1.2718550172
 S          2.5486076018        0.2437161870       -1.2927967875
 O          1.1758360959        0.5722396991       -1.5974488919
 O          3.5446082364        0.7581599883       -2.2104117537
 C          2.9819045468        0.7488524852        0.3587226579
 C          2.0275726058        1.2763536933        1.2037258813
 C          2.3938186893        1.6350249107        2.4914732495
 C          3.7049549620        1.4664070139        2.9078845132
 C          4.6559839793        0.9433956810        2.0440001399
 C          4.2934614724        0.5783403977        0.7579825324
 H          5.0003928571        0.1725104017        0.0538539058
 H          5.6753131573        0.8159517063        2.3709904224
 H          3.9845758014        1.7448510461        3.9116733015
 H          1.6462846468        2.0305993646        3.1611626669
 H          1.0134960941        1.3904068955        0.8517731967
 H          3.4196279003       -1.7050866416       -2.0376723177
 H          2.5532588494       -3.9359890082       -2.0968061285
 H          0.7601600971       -5.4682505021       -1.3864517974
 H         -1.0275223957       -4.6936483153        0.1080592928
 H         -0.8101180964       -1.7476540037        2.1319412705
 C         -2.3623465047       -3.0956205408        1.6283187836
 C         -3.7574132631       -2.6212280173        1.9028196354
 C         -3.4840908564       -3.5013769566        0.7219677904
 H         -3.8252820930       -4.5257875584        0.7594049570
 H         -3.5110380507       -3.0676930312       -0.2649183142
 H         -4.2862568465       -3.0379472572        2.7468470939
 H         -3.9738184883       -1.5782545607        1.7209801148
 H         -1.9776441578       -3.8616083924        2.2948474322
