  62
        -98.92750304
 C          2.5235997644        1.2480506906        0.3840313337
 C          2.8902673092        0.4752515869       -0.7441629893
 C          3.8155454159       -0.6491535139       -0.4954196283
 C          4.2470107387       -0.8961156866        0.7542992053
 C          5.2121252238       -1.9329580126        1.2903578065
 C          5.5991922171       -3.1479606560        0.4508184540
 C          4.4605259412       -4.1308502643        0.1807929829
 H          4.8301735150       -4.9008990971       -0.4998838949
 H          4.1923895413       -4.6193211355        1.1210941288
 C          3.1869493363       -3.5229432746       -0.4021196930
 H          2.4674251907       -4.3330355011       -0.5488941961
 H          2.7465889058       -2.8309828978        0.3190552659
 C          3.3562724841       -2.8045632113       -1.7395553003
 H          2.3565736800       -2.5646362372       -2.1114935067
 H          3.8299602779       -3.4748947614       -2.4592605189
 C          4.1568195193       -1.4913780115       -1.6906646486
 H          5.2271923345       -1.6764288712       -1.7370072178
 H          3.8865294902       -0.8997234572       -2.5699142097
 H          6.0568809082       -2.8314136512       -0.4816946292
 H          6.3685440407       -3.6819463700        1.0153340362
 H          6.1257991689       -1.3851143199        1.5466716470
 H          4.7831089854       -2.2747703487        2.2377054482
 O          3.8579057595       -0.1243154177        1.8129680351
 C          2.9864247767        0.9365174370        1.6623332220
 O          2.7002163523        1.5171529486        2.7313307529
 H         -0.2641934510        1.2069233818        1.6925844447
 C         -0.5818944411        1.2623541850        0.6578709284
 C          0.2443192224        1.9013212717       -0.2638596299
 C         -0.1753365376        1.9439390073       -1.5872748960
 C         -1.3809403148        1.3734731389       -1.9614387229
 C         -2.1907927174        0.7360169283       -1.0409241396
 C         -1.7809702547        0.6754668787        0.2845644452
 N         -2.5706921804        0.0006854268        1.2305014612
 S         -4.2203143967        0.2993042126        1.2775766090
 O         -4.5286300713        1.6422343319        0.8437543343
 O         -4.6274251972       -0.0512289475        2.6207722897
 C         -4.9036550470       -0.8850907287        0.1373034120
 C         -5.7338572932       -0.4613206953       -0.8818347916
 C         -6.2617191656       -1.4031393735       -1.7514616606
 C         -5.9526420213       -2.7445557650       -1.5866497437
 C         -5.1199296926       -3.1541638311       -0.5557740105
 C         -4.5903080251       -2.2180143110        0.3178106143
 H         -3.9422303776       -2.4956195625        1.1324394031
 H         -4.8814534377       -4.1981503306       -0.4305569516
 H         -6.3625970372       -3.4755126490       -2.2655778597
 H         -6.9098550580       -1.0869535506       -2.5529136421
 H         -5.9417473776        0.5927621061       -0.9751477683
 H         -2.1772950356       -0.0085107631        2.1601513563
 H         -3.1247817830        0.2867080557       -1.3358439812
 H         -1.6872185490        1.4182724793       -2.9955786061
 H          0.4430388840        2.3904954111       -2.3439971892
 C          1.5521076973        2.4197737383        0.2838417279
 H          1.3548017157        2.6974555369        1.3314708417
 C          2.2189894369        3.6468453730       -0.3219891048
 C          2.5854001357        3.8366327322       -1.7616778101
 C          1.5038301608        4.6737813433       -1.1475051246
 H          1.7148651999        5.7152085578       -0.9541157429
 H          0.4787926708        4.4794213359       -1.4202143061
 H          3.5358221486        4.3076712959       -1.9704733476
 H          2.3371238787        3.0562941267       -2.4611034106
 H          2.9468893613        4.0362916448        0.3871043022
 O          2.4817056053        0.6960889001       -1.9099968945
