  62
        -98.94313108
 C         -0.8588437203       -1.3671694410        0.0216056996
 C         -1.8684163300       -1.1439631015        0.9830087201
 C         -2.6725324601        0.0788440685        0.8221536408
 C         -2.4052055906        0.9151432789       -0.1981751690
 C         -3.0233458109        2.2468490990       -0.5715103583
 C         -4.3928086307        2.6538609686       -0.0314532676
 C         -5.5563779208        1.7792425587       -0.4947606875
 H         -6.4620314307        2.1297005284        0.0053504230
 H         -5.6939218613        1.9195298390       -1.5697015174
 C         -5.3977621306        0.2824280186       -0.2391652281
 H         -6.3125038407       -0.2126489614       -0.5761151579
 H         -4.5784364508       -0.1095845011       -0.8450631285
 C         -5.1668642500       -0.1114140219        1.2191047717
 H         -5.2564378298       -1.1991334219        1.2826218914
 H         -5.9462722698        0.3246961478        1.8468663222
 C         -3.7932564598        0.2710071581        1.8020194313
 H         -3.7919232797        1.2877424979        2.1893384517
 H         -3.5840351694       -0.3966594922        2.6431522510
 H         -4.5785334110        3.6689637787       -0.3934458172
 H         -4.3704925403        2.7070728483        1.0532263724
 H         -3.0534157813        2.2605577993       -1.6652948583
 H         -2.2973055208        3.0094588289       -0.2675709983
 O         -1.4033081609        0.6676637193       -1.0909092495
 C         -0.6091944208       -0.4643360207       -1.0102465402
 O          0.2595459189       -0.5491636703       -1.8971156306
 O         -2.0892392995       -1.9321019618        1.9441115899
 C          0.0006723299       -2.6106469010        0.1227658088
 C          1.4675513398       -2.2628787309        0.1890855084
 C          2.4528841597       -3.0896085406       -0.3390070723
 C          3.7886843397       -2.7431506005       -0.2395561727
 C          4.1708941299       -1.5629833307        0.3712124976
 C          3.1933371000       -0.7310991809        0.9053185382
 C          1.8583965000       -1.0926505410        0.8257650186
 H          1.1140202401       -0.4407498313        1.2591152591
 N          3.5404479901        0.4767811589        1.5319397385
 S          2.5707407599        1.8221609988        1.3791661694
 O          3.4358810900        2.9214761788        1.7596885994
 O          1.3743648102        1.6782794284        2.1732859198
 C          2.1423814592        2.0054541994       -0.3429944504
 C          3.0038319289        1.5857989098       -1.3354903309
 C          2.6585543383        1.8092482802       -2.6580917207
 C          1.4741657381        2.4577273002       -2.9657128100
 C          0.6250954485        2.8838804598       -1.9580949795
 C          0.9604474690        2.6536577894       -0.6346883697
 H          0.3205845993        2.9485943290        0.1830504806
 H         -0.3017391516        3.3802321298       -2.1976344990
 H          1.2056373177        2.6242536906       -3.9969848198
 H          3.3124750881        1.4688941306       -3.4447543311
 H          3.9203591190        1.0793744198       -1.0809259214
 H          4.5199249501        0.7182576190        1.4928257482
 H          5.2120433899       -1.2863873206        0.4388816272
 H          4.5422804196       -3.3956746003       -0.6531064432
 H          2.1727234096       -4.0070906604       -0.8300011525
 H         -0.2815181597       -3.0870932513        1.0745425388
 C         -0.3278948405       -3.5617824806       -1.0124360714
 C         -0.3010250603       -5.0454965507       -0.8012302519
 C         -1.6106042804       -4.3345034108       -0.9562798511
 H         -2.1717070807       -4.4721663205       -1.8683568210
 H         -2.2284665201       -4.2005627311       -0.0801339309
 H          0.0355941295       -5.6757049704       -1.6107121323
 H         -0.0383563698       -5.4077501510        0.1813365779
 H         -0.0191402309       -3.1739997303       -1.9768901914
