  62
        -98.94380831
 C         -1.8372559551       -1.0970739298        0.1030001320
 C         -2.2614945039       -0.0478605081       -0.7472294066
 C         -3.7122085639        0.0453293777       -0.9696504453
 C         -4.5277941954       -0.8596876262       -0.3982375501
 C         -6.0254278543       -0.8473135068       -0.4950920314
 C         -6.6483348104       -0.0535583131        0.6619568218
 C         -6.0181714055        1.3226750862        0.8763124536
 H         -6.5559290612        1.8024907811        1.6968956655
 H         -4.9830492363        1.1951879166        1.2014072505
 C         -6.0501300361        2.2347748225       -0.3579637165
 H         -6.7902879896        1.8686713039       -1.0703792444
 H         -6.3651292451        3.2332826110       -0.0475642679
 C         -4.7026488237        2.3933353348       -1.0651537810
 H         -3.9353706108        2.6709412110       -0.3376455110
 H         -4.7880959450        3.2168023557       -1.7793484009
 C         -4.2069947596        1.1657888445       -1.8402290693
 H         -4.9903968147        0.8151159211       -2.5153013537
 H         -3.3482719239        1.4779514048       -2.4421977986
 H         -7.7163532128        0.0596750717        0.4675667684
 H         -6.5293584712       -0.6313090304        1.5814414202
 H         -6.3195567177       -0.4126121091       -1.4483071161
 H         -6.3815383230       -1.8778468389       -0.4502245572
 O         -4.0782767415       -1.8726198066        0.3858432352
 C         -2.7288173792       -2.0085477185        0.6680967966
 O         -2.4532100922       -2.9621167734        1.4238211777
 H          2.0044204682       -0.0015684890       -0.2138601853
 C          1.4382755408        0.5133226968        0.5435243900
 C          0.2141559381        0.0144013069        0.9614581859
 C         -0.4912232368        0.7106576093        1.9396513384
 C         -0.0017152841        1.8948031707        2.4546141340
 C          1.2075077375        2.4041937450        2.0158048658
 C          1.9323699346        1.7051706987        1.0576463652
 N          3.1842235815        2.1724706797        0.6504199670
 S          4.0118445733        1.6310590913       -0.6848149543
 O          5.1407008263        2.5328935661       -0.7812983011
 O          3.1817701268        1.5405849487       -1.8627384823
 C          4.5986131295        0.0135235033       -0.2215474584
 C          4.9139736029       -0.2473462180        1.0970766830
 C          5.4030982308       -1.4996645793        1.4331005672
 C          5.5773173095       -2.4627167856        0.4512127869
 C          5.2634455106       -2.1833982165       -0.8695743159
 C          4.7684825676       -0.9345088784       -1.2109479772
 H          4.5003892104       -0.6786169326       -2.2240839405
 H          5.3997249992       -2.9330007800       -1.6328051566
 H          5.9583651519       -3.4364433684        0.7155976702
 H          5.6468113016       -1.7202698922        2.4599281163
 H          4.7671632466        0.5201184784        1.8384150507
 H          3.4422599118        3.1004554579        0.9458172857
 H          1.5866837946        3.3345623722        2.4096422937
 H         -0.5678002093        2.4305062428        3.2019604943
 H         -1.4394591936        0.3162425691        2.2797733763
 C         -0.3614947999       -1.2682749146        0.4132759490
 H         -0.3030138266       -2.0350475099        1.2001505366
 C          0.3671486488       -1.7775667501       -0.8135962137
 C          1.5651532777       -2.6659601734       -0.6693315005
 C          0.2671532580       -3.2317870675       -1.1596649261
 H          0.1826687746       -3.5099491029       -2.1994668976
 H         -0.3060063264       -3.8583390908       -0.4916925026
 H          2.3749034840       -2.5537773996       -1.3743182612
 H          1.8845354810       -2.9186232771        0.3303523291
 H          0.3540416645       -1.0646497106       -1.6312789093
 O         -1.4736786059        0.7714846829       -1.2890735956
