  62
        -98.94489762
 C         -2.4427538510       -1.1257599161       -0.0538466122
 C         -3.1216974010       -0.3474558594        0.9216763244
 C         -3.6795500845        0.9287405439        0.4664207043
 C         -3.5440007967        1.2907618991       -0.8217317537
 C         -4.0541867408        2.5613718199       -1.4446652020
 C         -3.1140317606        3.7601804596       -1.2564884801
 C         -3.0784753144        4.3423714929        0.1572854961
 H         -2.5639683210        5.3031761224        0.0933536233
 H         -4.0969193083        4.5388184521        0.4940479734
 C         -2.3531619867        3.4643421509        1.1868710248
 H         -1.7267309964        2.7338054880        0.6679256315
 H         -1.6825225291        4.0855343557        1.7850923320
 C         -3.2769030340        2.7301185222        2.1593684016
 H         -3.8018918960        3.4566671789        2.7834511631
 H         -2.6589275221        2.1076188282        2.8112308113
 C         -4.3159816169        1.8244473815        1.4858345415
 H         -5.0991721040        2.4265661589        1.0261240344
 H         -4.7648147349        1.1886701006        2.2527818612
 H         -3.4440783965        4.5444884496       -1.9417986336
 H         -2.1045258086        3.4630028804       -1.5528800081
 H         -4.1541641637        2.3661377589       -2.5145439425
 H         -5.0380377312        2.8009005947       -1.0403525897
 O         -2.9180499759        0.5046774945       -1.7349565904
 C         -2.3240192642       -0.6966581877       -1.3755926867
 O         -1.7528944717       -1.2650831059       -2.3300870981
 O         -3.2571251565       -0.7098261787        2.1201301790
 C         -1.7948227736       -2.4114425629        0.4384327281
 C         -0.3339286439       -2.1394327972        0.7061230878
 C          0.1575407381       -2.0774997723        2.0050229138
 C          1.4792956890       -1.7439846129        2.2447757278
 C          2.3327483989       -1.4494338683        1.1959808371
 C          1.8479308618       -1.5035675808       -0.1036897642
 C          0.5326480325       -1.8654711589       -0.3430520317
 H          0.1619646632       -1.8824108303       -1.3574531282
 N          2.7000326876       -1.1400736321       -1.1767190596
 S          2.9475995595        0.5272875262       -1.2676092851
 O          1.7949817010        1.2604992904       -0.7907106927
 O          3.3581751315        0.7894457115       -2.6300859879
 C          4.3303385949        0.7910156510       -0.1782179182
 C          5.5438304678        0.2256283368       -0.5192332958
 C          6.6287478763        0.4134509305        0.3220143751
 C          6.4826443874        1.1601933223        1.4819298543
 C          5.2582783249        1.7231000345        1.8083849670
 C          4.1683764102        1.5379142401        0.9717697003
 H          3.1954180342        1.9506435213        1.1858200089
 H          5.1462787563        2.3033372521        2.7101404760
 H          7.3282086714        1.3049552876        2.1356457368
 H          7.5825306394       -0.0221479198        0.0716148004
 H          5.6117729711       -0.3417680233       -1.4323092238
 H          2.3359564198       -1.4489929682       -2.0690050640
 H          3.3596834648       -1.1744034266        1.3740149708
 H          1.8457787444       -1.7013860693        3.2589519194
 H         -0.5137652241       -2.2690988767        2.8294971897
 H         -2.2789920087       -2.6270482780        1.4002952249
 C         -1.9990335773       -3.5988234047       -0.4790325268
 C         -1.8204655646       -4.9795973490        0.0752711485
 C         -3.1905196547       -4.4837911685       -0.2749512372
 H         -3.6826857796       -4.8908005124       -1.1454118299
 H         -3.8653592192       -4.2350921335        0.5310074929
 H         -1.3692801330       -5.7316874517       -0.5533677876
 H         -1.5663330587       -5.0683486738        1.1205647174
 H         -1.6864585043       -3.4197450374       -1.4993152330
