  62
        -98.94292268
 C          2.1135055308        1.5108394787        0.1209673102
 C          1.7245422703        0.3572181790       -0.6058145700
 C          2.7710871397       -0.6606896216       -0.7857275801
 C          4.0110926598       -0.4486658023       -0.3121147800
 C          5.1876798493       -1.3752152530       -0.4573741600
 C          5.2489859385       -2.4793073732        0.6069959299
 C          4.2034128679       -3.5852011226        0.4577186796
 H          4.2375696678       -3.9806472424       -0.5579274304
 H          4.4948106374       -4.3933592828        1.1315674095
 C          2.7707606481       -3.1503277818        0.7973106296
 H          2.7989773386       -2.2202889719        1.3697912697
 H          2.3039917877       -3.9029257716        1.4364329494
 C          1.8591229783       -2.9576940911       -0.4147541005
 H          0.8895582685       -2.6016431006       -0.0576931605
 H          1.7092759478       -3.9172782309       -0.9143223507
 C          2.3819550690       -1.9487425213       -1.4453126303
 H          3.2251219488       -2.3686787617       -1.9933675703
 H          1.5780460692       -1.7289331807       -2.1517604803
 H          6.2405079083       -2.9342684737        0.5472565099
 H          5.1544336787       -2.0189054833        1.5933124199
 H          5.1796181391       -1.8253682628       -1.4505116901
 H          6.0834208596       -0.7571880035       -0.3634827098
 O          4.3503068304        0.6832056174        0.3613293302
 C          3.4065581209        1.6609843779        0.6304771803
 O          3.8368931114        2.6068880275        1.3208810605
 O          0.5804643202        0.1713203597       -1.0913910502
 C          1.1313329214        2.6238389492        0.4483928302
 C         -0.1693449489        2.0241628299        0.9206194400
 C         -0.2064438994        1.3832884697        2.1556879299
 C         -1.3688737598        0.7892761803        2.6093435398
 C         -2.5177262797        0.8147110811        1.8380510397
 C         -2.4854680592        1.4382070012        0.5980668998
 C         -1.3201292989        2.0469058906        0.1504676199
 H         -1.3047292385        2.5097934808       -0.8236160900
 N         -3.6377023392        1.4566040220       -0.2035472603
 S         -4.6110375899        0.1002157826       -0.2617221606
 O         -5.3058202898        0.1960652631       -1.5270333307
 O         -5.4525884000        0.0628714929        0.9098955293
 C         -3.5235778307       -1.3142080981       -0.2637617507
 C         -3.6567488214       -2.2753400681        0.7177996991
 C         -2.8203949520       -3.3794937486        0.6930500990
 C         -1.8718808620       -3.5034669290       -0.3101058209
 C         -1.7519244913       -2.5296930589       -1.2895770008
 C         -2.5830526907       -1.4224351585       -1.2682949607
 H         -2.5025425602       -0.6504967884       -2.0159414705
 H         -1.0081755013       -2.6205421892       -2.0644275807
 H         -1.2207868225       -4.3633663994       -0.3296879710
 H         -2.9103668225       -4.1380713787        1.4540056289
 H         -4.4102840313       -2.1406385678        1.4770476091
 H         -3.4900195089        1.8415507420       -1.1246696403
 H         -3.4347367300        0.3633063415        2.1800563795
 H         -1.3826940101        0.2988615802        3.5709301197
 H          0.6947045405        1.3503768091        2.7533531700
 H          1.5836669917        3.1632342188        1.2963736204
 C          0.9497110321        3.6447759095       -0.6652343696
 C          2.1078555624        4.0475337989       -1.5270528595
 C          0.9694963120        3.2727156996       -2.1163164897
 H          0.2949918324        3.7872579201       -2.7857777197
 H          1.1279316515        2.2360147396       -2.3677315098
 H          2.2153981630        5.0891313889       -1.7899065093
 H          3.0477290421        3.5390655484       -1.3682689395
 H          0.2682318526        4.4391081598       -0.3749098196
