  62
        -98.94467825
 C         -2.5473199425       -0.8852677704        0.2905035584
 C         -2.5114384373       -0.0011400191       -0.8152048977
 C         -2.8387966389        1.4033359818       -0.5289403292
 C         -3.1738243257        1.7690889154        0.7204786784
 C         -3.4756393921        3.1721425301        1.1578062122
 C         -2.2148878224        3.8817088574        1.6701148648
 C         -1.0108680383        3.7741809137        0.7332622777
 H         -0.2021968216        4.3600774514        1.1764589531
 H         -0.6624237023        2.7387698909        0.6938312603
 C         -1.2681186571        4.2678412441       -0.6970153118
 H         -2.1487888987        4.9117723179       -0.7180109659
 H         -0.4142954793        4.8698561858       -1.0152655534
 C         -1.4272850401        3.1496640880       -1.7291640824
 H         -1.3487880676        3.5918590002       -2.7266373405
 H         -0.6001157570        2.4413934715       -1.6199179936
 C         -2.7511284238        2.3752293202       -1.6713246169
 H         -3.5874039650        3.0772224071       -1.6495542458
 H         -2.8281925043        1.7769063699       -2.5839703970
 H         -1.9376234609        3.4442789155        2.6318580132
 H         -2.4557400918        4.9342984304        1.8312960940
 H         -3.9012868908        3.7238185632        0.3219958095
 H         -4.2089690748        3.1288186923        1.9650587955
 O         -3.2406180498        0.8876244975        1.7497309334
 C         -2.8990493760       -0.4399199232        1.5694441973
 O         -2.9613513366       -1.1267914336        2.6087949884
 H         -0.3634071622       -1.3808894225       -1.5836909895
 C          0.1331808513       -1.8210049938       -0.7317248184
 C         -0.6224208444       -2.4041448484        0.2755827106
 C          0.0408700213       -2.9429131486        1.3718693383
 C          1.4213233994       -2.8855448746        1.4603484451
 C          2.1659139641       -2.2632957737        0.4729544803
 C          1.5091924864       -1.7224576973       -0.6232327339
 N          2.2511056409       -0.9867572932       -1.5869828236
 S          2.4904017387        0.5999782746       -1.0521237630
 O          1.3707760934        1.0699992471       -0.2671277546
 O          2.8191432822        1.3724878608       -2.2305366741
 C          3.9322328818        0.4352436612       -0.0231607074
 C          5.1368929600        0.1408745303       -0.6317814248
 C          6.2624644458       -0.0256004077        0.1588865482
 C          6.1637227364        0.1028661721        1.5366181990
 C          4.9471210654        0.3999655442        2.1317769612
 C          3.8171613412        0.5676371283        1.3461614482
 H          2.8486783277        0.7931266719        1.7639433578
 H          4.8716765637        0.4984952448        3.2028193437
 H          7.0401685871       -0.0295375261        2.1511148342
 H          7.2105283441       -0.2562382051       -0.2995945534
 H          5.1656308969        0.0542176621       -1.7051152895
 H          1.7687580979       -0.9398747854       -2.4758427268
 H          3.2386954777       -2.1874479912        0.5468879464
 H          1.9209761821       -3.3102968647        2.3174590380
 H         -0.5376421307       -3.3835266042        2.1709290216
 C         -2.1299767027       -2.3491525160        0.2136831920
 H         -2.5244837098       -2.8217220249        1.1229300846
 C         -2.6806948148       -3.0871733132       -0.9889606334
 C         -2.7437990747       -4.5836459979       -0.9503971540
 C         -4.0052698507       -3.7777746749       -0.8794056107
 H         -4.6626764743       -3.7666305678       -1.7356765253
 H         -4.5217845142       -3.7197392840        0.0677519250
 H         -2.5333177346       -5.1306730047       -1.8564511254
 H         -2.4063315975       -5.0750274175       -0.0504299538
 H         -2.4456734885       -2.6153108125       -1.9334633483
 O         -2.2249999316       -0.3399135033       -1.9967849906
