  62
        -98.93738089
 C         -2.1215507558       -0.7924776402        0.4965256927
 C         -1.9986159320       -0.0110005999       -0.6751039705
 C         -2.0169248615        1.4537379825       -0.5004989844
 C         -2.1436215806        1.9571987675        0.7408654768
 C         -2.2245745961        3.4048958094        1.1440314353
 C         -3.5983545912        4.0307849633        0.8412116389
 C         -4.2195903209        3.6206711860       -0.4922796414
 H         -4.2773272375        2.5315996044       -0.5395587804
 H         -5.2440715573        4.0014996328       -0.5125829767
 C         -3.5028172853        4.1450827476       -1.7339400435
 H         -3.5320709505        5.2371319153       -1.7280710375
 H         -4.0645968900        3.8008359573       -2.6058239083
 C         -2.0475890111        3.7060552368       -1.8980101909
 H         -1.4025811049        4.2361914262       -1.2024804225
 H         -1.7291069337        3.9993786512       -2.9028120847
 C         -1.8109898614        2.2019056117       -1.7946604166
 H         -2.4320171592        1.6882175364       -2.5372956362
 H         -0.7729009863        1.9924615239       -2.0834831444
 H         -3.4998517826        5.1166391490        0.8815446537
 H         -4.2858646933        3.7239746539        1.6329636775
 H         -1.4224808245        3.9604887876        0.6664132727
 H         -2.0541203392        3.4411982366        2.2224420467
 O         -2.2723814625        1.1635928201        1.8438019184
 C         -2.2319783184       -0.2138809782        1.7576336950
 O         -2.3113423187       -0.8057309780        2.8564450934
 O         -1.8817843783       -0.5113682743       -1.8254546650
 C         -2.0265972434       -2.3034699225        0.4105673218
 C         -0.7185805466       -2.7079610111       -0.2293954487
 C         -0.5850434570       -3.8417680290       -1.0205820773
 C          0.6425370281       -4.1706742887       -1.5706845517
 C          1.7517913167       -3.3729342007       -1.3634820702
 C          1.6262873524       -2.2308899928       -0.5777528789
 C          0.4078707175       -1.9295588833        0.0049264216
 H          0.3310444042       -1.0569959559        0.6381217201
 N          2.7183741196       -1.3631834836       -0.4111254321
 S          2.6359145212        0.0102905544        0.5442446073
 O          2.4949881847       -0.3346576684        1.9443407577
 O          1.6461294904        0.9038731999       -0.0027053212
 C          4.2675096671        0.6640514979        0.2450630106
 C          5.2555991892        0.5163466460        1.1993800652
 C          6.5237329551        1.0098111694        0.9339167339
 C          6.7812104062        1.6366876824       -0.2757464822
 C          5.7788349993        1.7785073360       -1.2242463557
 C          4.5091637592        1.2884089965       -0.9642948823
 H          3.6959653365        1.3812305618       -1.6655464577
 H          5.9815772257        2.2683116270       -2.1629849003
 H          7.7684366800        2.0198700519       -0.4800151938
 H          7.3037077409        0.9039819227        1.6705221011
 H          5.0057999999        0.0284041651        2.1278110391
 H          3.6203807528       -1.8148321321       -0.3896338582
 H          2.7028061773       -3.6191891803       -1.8089148873
 H          0.7328966050       -5.0576099956       -2.1792730601
 H         -1.4430833973       -4.4667699251       -1.2077620322
 H         -2.0258597555       -2.6675705611        1.4498227159
 C         -3.2355441808       -2.8716445878       -0.3063282622
 C         -3.8005268289       -4.2026231260        0.0872061003
 C         -4.5401224500       -2.9447572395        0.4269392333
 H         -5.4479863729       -2.7146991613       -0.1099756285
 H         -4.5452649044       -2.6139699232        1.4557858019
 H         -4.2057203855       -4.8387065631       -0.6853559724
 H         -3.3163454668       -4.7347898563        0.8922276222
 H         -3.2631130894       -2.5895169874       -1.3525316295
