  62
        -98.94487335
 C          2.6471790078        0.3209943611       -0.0071326924
 C          2.4438999486        1.4329037219       -0.8574688737
 C          1.7636255739        2.5833675155       -0.2555018662
 C          1.3838873615        2.5324990977        1.0345693590
 C          0.6327283521        3.6041611686        1.7761939471
 C         -0.8850716376        3.5368659070        1.5512820520
 C         -1.3611489889        4.0432137811        0.1882190329
 H         -2.4419901474        4.1820120176        0.2586630638
 H         -0.9191666215        5.0200220818       -0.0128680639
 C         -1.0613596706        3.0870798180       -0.9750896557
 H         -0.8529713932        2.0919816188       -0.5726306546
 H         -1.9458529185        2.9998891788       -1.6118230998
 C          0.0946997481        3.5232546757       -1.8761206358
 H          0.2509509076        2.7495918743       -2.6326490693
 H         -0.1735638560        4.4483596480       -2.3917153993
 C          1.4250906877        3.7425277731       -1.1448494993
 H          1.3897163390        4.6654133750       -0.5668797783
 H          2.2162577853        3.8273154741       -1.8942364735
 H         -1.2066097755        2.5003185149        1.6859354117
 H         -1.3591463454        4.1407498569        2.3287636419
 H          1.0064193078        4.5884863127        1.4919936384
 H          0.8322430407        3.4469038450        2.8382504812
 O          1.6519429957        1.4687838191        1.8362501986
 C          2.2334718280        0.3198247132        1.3263143836
 O          2.3485512770       -0.6083582963        2.1506049868
 O          2.7923817158        1.4517579015       -2.0702533963
 C          3.1764792304       -0.9732939429       -0.6033144009
 C          2.0754911703       -2.0002629242       -0.4863117499
 C          2.2423524293       -3.2741945638        0.0388005625
 C          1.1500693491       -4.1059166657        0.2265593841
 C         -0.1287327748       -3.6843295554       -0.0903566620
 C         -0.2982360319       -2.4254130903       -0.6470768224
 C          0.7961157120       -1.6084698876       -0.8620661139
 H          0.6466449592       -0.6198409293       -1.2803849278
 N         -1.6154500261       -1.9420733556       -0.9056798338
 S         -2.1810504095       -1.1591261226        0.4934797439
 O         -1.4269742374        0.0530499410        0.7299525937
 O         -2.2002321856       -2.1280136278        1.5593594974
 C         -3.8505579886       -0.7536050461        0.0153691145
 C         -4.1909547901        0.5582929180       -0.2496210837
 C         -5.4875199043        0.8464926572       -0.6472831502
 C         -6.4133981863       -0.1773452228       -0.7759407087
 C         -6.0553292553       -1.4903839701       -0.5070017026
 C         -4.7617880986       -1.7849519997       -0.1077108806
 H         -4.4383269278       -2.7871352863        0.1185316627
 H         -6.7787208141       -2.2833276160       -0.6072834139
 H         -7.4212500232        0.0498784136       -1.0856076445
 H         -5.7683094828        1.8666202276       -0.8543173268
 H         -3.4382984107        1.3217076757       -0.1322687290
 H         -1.5954827026       -1.2399560013       -1.6370093865
 H         -0.9917566290       -4.2994505426        0.1038727272
 H          1.2962060210       -5.0870203665        0.6523937565
 H          3.2256994940       -3.6074460117        0.3287061825
 H          3.3507669173       -0.7592016366       -1.6683502354
 C          4.4808354012       -1.3967636095        0.0334250668
 C          5.4506330264       -2.2449431677       -0.7329165279
 C          5.7605635428       -0.8026911290       -0.4712450284
 H          6.5318951942       -0.5598814351        0.2439043912
 H          5.6925975149       -0.1056009991       -1.2935824422
 H          6.0141445251       -2.9941480647       -0.1978591781
 H          5.1789030732       -2.5299887327       -1.7379709206
 H          4.3883477075       -1.5562744698        1.1017144274
