  62
        -98.94320566
 C         -0.7884259165       -1.8903087722        0.1650801149
 C         -1.4537652069       -1.1563798548        1.1721330108
 C         -2.7010727588       -0.4777045059        0.7792960483
 C         -3.1326966884       -0.5923417627       -0.4887393497
 C         -4.3312575089        0.0684786832       -1.1120205723
 C         -3.9353905733        1.4047893718       -1.7648076389
 C         -4.0134070299        2.6166975794       -0.8387491442
 H         -3.6161200087        3.4711079538       -1.3916067159
 H         -5.0591685386        2.8287727956       -0.6041102867
 C         -3.2264935888        2.4736654663        0.4659066147
 H         -2.2606549056        2.0155109164        0.2429196204
 H         -3.0220931645        3.4764688954        0.8474156933
 C         -3.9770094861        1.6729346538        1.5406616860
 H         -3.9837497497        2.2421874021        2.4726644799
 H         -5.0183355356        1.5652044221        1.2370731128
 C         -3.3921939564        0.2925402780        1.8718387430
 H         -4.1858330930       -0.3368609680        2.2890226936
 H         -2.6356259879        0.3977626222        2.6561740840
 H         -2.9133170290        1.3110020581       -2.1433686410
 H         -4.5883563625        1.5864576298       -2.6212964382
 H         -5.1213921664        0.2082570179       -0.3797307034
 H         -4.6885598672       -0.6082949312       -1.8910803870
 O         -2.4709223656       -1.3257697252       -1.4255905477
 C         -1.2787210849       -1.9683342464       -1.1384422911
 O         -0.7706802998       -2.5685423947       -2.1050215445
 O         -1.0162332828       -1.0580562577        2.3515778781
 C          0.5422444492       -2.5389722205        0.4895906420
 C          1.6613850872       -1.9165376076       -0.3133190795
 C          2.8339916795       -2.5987641659       -0.6184826081
 C          3.8402831783       -1.9739012043       -1.3344291525
 C          3.7099225517       -0.6618564761       -1.7535783721
 C          2.5412558857        0.0290382661       -1.4540197831
 C          1.5398032395       -0.6003008859       -0.7326719080
 H          0.6289960526       -0.0614502541       -0.5299933852
 N          2.3484127654        1.3484549936       -1.8790179359
 S          1.3085953999        2.3862032851       -1.0914135489
 O         -0.0619601310        1.9906289449       -1.2973076032
 O          1.6724069002        3.6920484201       -1.5997141566
 C          1.7537836480        2.2737003956        0.6318475729
 C          0.8727530407        1.7460731986        1.5518036147
 C          1.2692317567        1.6280813743        2.8742629190
 C          2.5344418960        2.0463029445        3.2542888367
 C          3.4055481978        2.5898193901        2.3214178302
 C          3.0158664553        2.7016600856        0.9972755349
 H          3.6626570150        3.1247061322        0.2460377888
 H          4.3868835258        2.9199055995        2.6219181130
 H          2.8412369761        1.9491369228        4.2837456902
 H          0.5870468182        1.1915392251        3.5864130703
 H         -0.1050433346        1.4224567679        1.2314486153
 H          3.1515809092        1.8113570381       -2.2748569583
 H          4.4938459489       -0.1806252906       -2.3174982140
 H          4.7428068068       -2.5171216691       -1.5698395560
 H          2.9547957331       -3.6220916571       -0.3022594455
 H          0.7255905634       -2.3125449563        1.5516866010
 C          0.4677694713       -4.0436912313        0.3209047692
 C          1.2182617290       -4.9541405958        1.2453427111
 C         -0.2727813236       -4.8491828178        1.3451771942
 H         -0.8767543689       -5.6791088997        1.0105328176
 H         -0.6935398091       -4.3140489599        2.1840825346
 H          1.6397667649       -5.8628071931        0.8424712840
 H          1.8068111991       -4.5007142002        2.0286319401
 H          0.3630098931       -4.3384539273       -0.7171140423
