  62
        -98.94445690
 C          1.8556498917        1.0432332465       -0.1992316012
 C          2.3999519213       -0.0690456508       -0.8853062564
 C          3.8616947259       -0.1970685354       -0.8242063254
 C          4.5904294406        0.7343223175       -0.1825661820
 C          6.0892366678        0.7501163584       -0.0509418656
 C          6.6203438913       -0.1051297448        1.1077119407
 C          6.5382992107       -1.6168516947        0.8917100210
 H          6.9992260523       -1.8718422087       -0.0630453097
 H          7.1352968098       -2.0851198225        1.6768489868
 C          5.1148168522       -2.1892146014        0.9471568361
 H          4.4493418457       -1.4669246773        1.4254335658
 H          5.1076959255       -3.0889342747        1.5664864238
 C          4.5311465819       -2.5719558874       -0.4131056944
 H          3.5085348675       -2.9269209124       -0.2601363441
 H          5.1115439218       -3.3908977276       -0.8439335348
 C          4.4840053862       -1.4203766645       -1.4260497484
 H          5.4859632272       -1.1998169106       -1.7936456792
 H          3.8609519895       -1.7300267496       -2.2687670311
 H          6.0771006594        0.1629698688        2.0168024062
 H          7.6690209569        0.1625104817        1.2562087060
 H          6.3748478059        1.7887575372        0.1289461735
 H          6.5435688102        0.4216831852       -0.9859810525
 O          4.0293230632        1.8119633144        0.4282486759
 C          2.6539532797        1.9784253094        0.4586604534
 O          2.2703258424        2.9821376322        1.0930273986
 O          1.7066930294       -0.9116692601       -1.5122855129
 C          0.3522296154        1.2512837726       -0.1724745532
 C         -0.3336897317        0.0187194083        0.3637935456
 C          0.1693963083       -0.5839059219        1.5148516416
 C         -0.4107744600       -1.7266782075        2.0277089097
 C         -1.5202020885       -2.2842782501        1.4159910978
 C         -2.0414460546       -1.6822515229        0.2784029458
 C         -1.4536692257       -0.5335311772       -0.2372484426
 H         -1.8709204208       -0.1002565951       -1.1305390064
 N         -3.1662662735       -2.2234160784       -0.3617992175
 S         -4.3471261800       -1.2077946217       -0.9615010907
 O         -5.5400309616       -2.0262613586       -1.0038956604
 O         -3.9350484553       -0.6342950386       -2.2171804590
 C         -4.5264135405        0.0704175393        0.2708517950
 C         -4.3371443944        1.3911133799       -0.0778878992
 C         -4.4621893848        2.3676244323        0.8976874897
 C         -4.7701867358        2.0070092127        2.1998717464
 C         -4.9638304936        0.6751015995        2.5338162885
 C         -4.8421603935       -0.3044268330        1.5622342931
 H         -4.9968059714       -1.3468029935        1.7882895682
 H         -5.2070227161        0.3987543279        3.5470975347
 H         -4.8617386245        2.7687328760        2.9580308237
 H         -4.3165265864        3.4043368147        0.6383481297
 H         -4.0946120902        1.6282478305       -1.1008256106
 H         -3.5623275395       -3.0346037183        0.0892388818
 H         -1.9703913107       -3.1832498193        1.8086089007
 H          0.0015107258       -2.1883833047        2.9122313350
 H          1.0366382630       -0.1489913264        1.9933495899
 H          0.1708616413        2.0792158668        0.5287838299
 C         -0.1320351104        1.6635591456       -1.5471169425
 C         -1.3017990826        2.5873308730       -1.6942958843
 C          0.0820761260        3.0773881768       -1.9944849226
 H          0.3577055805        3.2571152236       -3.0228458257
 H          0.5506079367        3.7516643720       -1.2921485753
 H         -1.9805754726        2.4276998870       -2.5191721684
 H         -1.7737760991        2.9389395377       -0.7894958910
 H         -0.0008480779        0.8820399032       -2.2874185104
