  62
        -98.94687186
 C          1.1608186170        1.1477683686       -0.1752519069
 C          2.0281475673        0.8378931161        0.9063981139
 C          2.8521927065       -0.3674964172        0.7613872760
 C          2.7319472769       -1.1114291239       -0.3528556714
 C          3.5605088045       -2.3221605791       -0.6697313487
 C          4.8232405480       -1.9378876269       -1.4540828120
 C          5.6092351543       -0.7829295421       -0.8333142427
 H          5.0084254682        0.1278009219       -0.8874621622
 H          6.4933316740       -0.6207590864       -1.4537797961
 C          6.0416809540       -1.0180267222        0.6208438410
 H          7.0844780920       -0.7124903320        0.7296651192
 H          5.9910970544       -2.0818866134        0.8556163660
 C          5.2369596715       -0.2309612116        1.6569815257
 H          5.2119585222        0.8248821618        1.3758376807
 H          5.7571976402       -0.3011106786        2.6160024070
 C          3.7952403913       -0.7042869012        1.8817639262
 H          3.4103666316       -0.1859371930        2.7646328553
 H          3.7895598052       -1.7773859922        2.0831178249
 H          4.5284681052       -1.6463440295       -2.4647775524
 H          5.4649102801       -2.8177887596       -1.5284224084
 H          2.9624984369       -3.0028335643       -1.2774591567
 H          3.8381925462       -2.8221366448        0.2563264270
 O          1.8642548759       -0.8092331632       -1.3479385792
 C          1.0592697296        0.3173157073       -1.2915877373
 O          0.3215105469        0.4426815071       -2.2904956099
 O          2.1150697146        1.5480932295        1.9427600470
 C          0.3432928404        2.4233952900       -0.0419936278
 C         -1.0654999142        2.1100481017        0.3984407726
 C         -1.5288423433        2.4936145756        1.6513738316
 C         -2.8101565483        2.1668739479        2.0623769143
 C         -3.6512312293        1.4406954805        1.2374977412
 C         -3.1913388367        1.0467642297       -0.0116959569
 C         -1.9160047524        1.3914935041       -0.4298529151
 H         -1.5639906140        1.0670543963       -1.3976479719
 N         -4.0171722847        0.2443984630       -0.8371521678
 S         -4.1975168823       -1.3222105155       -0.2675935810
 O         -4.7396059511       -2.0866951054       -1.3673540224
 O         -4.9921880879       -1.2827789743        0.9336106110
 C         -2.5453910782       -1.8768343210        0.1190091729
 C         -1.8207046131       -2.5403620304       -0.8498722836
 C         -0.5249526645       -2.9376936983       -0.5638125238
 C          0.0268485166       -2.6493650767        0.6743538355
 C         -0.7068233054       -1.9646710155        1.6302443879
 C         -2.0078965376       -1.5772895079        1.3550872766
 H         -2.6125182165       -1.0566031740        2.0794730170
 H         -0.2664628840       -1.7279169526        2.5857311276
 H          1.0372900391       -2.9547212487        0.8961539835
 H          0.0523961661       -3.4603730883       -1.3095312387
 H         -2.2847700548       -2.7454266446       -1.8014962547
 H         -3.6754767824        0.1998577334       -1.7882851028
 H         -4.6409764029        1.1494109044        1.5497353388
 H         -3.1552292154        2.4739580296        3.0379444561
 H         -0.8697569666        3.0366935875        2.3128141590
 H          0.8267808903        2.9897047950        0.7651270519
 C          0.3518080882        3.2747706077       -1.2965679479
 C          0.0171017337        4.7311157783       -1.1883327202
 C          1.4245430238        4.3046204084       -1.4771887840
 H          1.8221108339        4.4658655834       -2.4680177094
 H          2.1590776635        4.4054730560       -0.6914303915
 H         -0.5553322508        5.1879224362       -1.9809332917
 H         -0.2021524394        5.1223837258       -0.2064686739
 H          0.0196824434        2.7466650831       -2.1807335572
