  62
        -98.94626316
 C          1.5927156418        1.4455995190       -0.0457069098
 C          2.5301795225        0.9137128151        0.8699080377
 C          3.2225693421       -0.3090234269        0.4422209981
 C          2.9282870125       -0.8468275230       -0.7560868727
 C          3.5577394362       -2.0920642158       -1.3097932943
 C          2.7519406307       -3.3462885018       -0.9467163753
 C          2.3662634182       -3.4265408745        0.5297964537
 H          1.6791031305       -2.6097265808        0.7633343335
 H          1.8166667522       -4.3589763146        0.6748119492
 C          3.5573058657       -3.3846356519        1.4977132990
 H          3.4140947611       -4.1505105305        2.2630052687
 H          4.4764925635       -3.6290219334        0.9639574565
 C          3.7390785155       -2.0540560004        2.2304078138
 H          4.4609234282       -2.2070193178        3.0372801518
 H          2.7937093064       -1.7571093229        2.6922301954
 C          4.2484879890       -0.8853617793        1.3771001121
 H          5.1424465098       -1.1921254230        0.8301762944
 H          4.5245988723       -0.0735596787        2.0566590156
 H          3.3394803879       -4.2249322925       -1.2187659514
 H          1.8360320641       -3.3480307675       -1.5387917347
 H          3.5983812752       -1.9994314964       -2.3963060458
 H          4.5729686172       -2.1758052835       -0.9261500452
 O          1.9961799948       -0.3264653599       -1.5938058662
 C          1.3042561913        0.8306868349       -1.2647815906
 O          0.4826837258        1.2012697579       -2.1213028562
 O          2.7785897898        1.4387981225        1.9899717446
 C          0.8641155580        2.7289933768        0.3088683540
 C         -0.6265781447        2.5002545930        0.3205072934
 C         -1.5353894290        3.3438505819       -0.3036833707
 C         -2.8921453053        3.0685419003       -0.2632925275
 C         -3.3724940532        1.9565424386        0.4027122141
 C         -2.4715889913        1.1078942131        1.0350673701
 C         -1.1146635920        1.3862696617        0.9940011402
 H         -0.4151925621        0.7235635578        1.4893278653
 N         -2.9502155129       -0.0300146161        1.7194610791
 S         -3.7511852683       -1.1961802935        0.8233423203
 O         -4.9370206364       -0.6116548604        0.2520878599
 O         -3.9549287831       -2.3015548742        1.7316176102
 C         -2.6182123640       -1.6746584693       -0.4677323968
 C         -2.4370365224       -0.8360925209       -1.5497193998
 C         -1.5215019417       -1.1924866568       -2.5267357587
 C         -0.8141460336       -2.3786345471       -2.4091839311
 C         -1.0122967187       -3.2134569310       -1.3198045744
 C         -1.9153744549       -2.8552465713       -0.3326160119
 H         -2.0981964103       -3.4724563302        0.5324783143
 H         -0.4670384201       -4.1401254624       -1.2337767662
 H         -0.1032551266       -2.6483005017       -3.1748653308
 H         -1.3499247382       -0.5332374884       -3.3616961220
 H         -3.0060132919        0.0766640622       -1.6169491577
 H         -2.2417595900       -0.4799305049        2.2823047069
 H         -4.4237245692        1.7198896972        0.4279666436
 H         -3.5861478201        3.7309780113       -0.7581220255
 H         -1.1830049463        4.2159040368       -0.8291519315
 H          1.1802382945        2.9717380102        1.3346338779
 C          1.2996992071        3.8506643914       -0.6107599052
 C          1.2799664923        5.2711488266       -0.1330903777
 C          2.5863750681        4.5625063758       -0.3232762015
 H          3.2148234939        4.8485151074       -1.1533171240
 H          3.1369763213        4.2562706919        0.5543520037
 H          1.0134941057        6.0480272453       -0.8338053669
 H          0.9460463779        5.4549242456        0.8769271126
 H          1.0589013788        3.6543058474       -1.6494974062
