  62
        -98.94569443
 C         -2.4580316119       -0.8130346464        0.1578618813
 C         -1.9598281798        0.0568727582       -0.8423735571
 C         -2.3578607267        1.4642999012       -0.7129596443
 C         -3.1582592497        1.8453843659        0.2992047531
 C         -3.6583761498        3.2416900664        0.5540679882
 C         -2.6716053792        4.1252357068        1.3302000224
 C         -1.4435207862        4.5801974942        0.5402707255
 H         -1.7651764853        5.0369493649       -0.3959870704
 H         -0.9533313575        5.3567287166        1.1307609867
 C         -0.4283155605        3.4653717146        0.2492470569
 H         -0.6210256348        2.6173072302        0.9109294792
 H          0.5797435231        3.8205116532        0.4738990528
 C         -0.4257847115        2.9734383739       -1.1980144069
 H          0.3010672180        2.1617441140       -1.2828278264
 H         -0.1084017729        3.7826975225       -1.8583490767
 C         -1.7810828516        2.4466449137       -1.6866211093
 H         -2.4722327203        3.2725764129       -1.8518603520
 H         -1.6238114817        1.9232182729       -2.6324563766
 H         -3.2172529796        5.0137738702        1.6561096011
 H         -2.3507646460        3.5871908740        2.2255575568
 H         -3.9100708554        3.7198992260       -0.3927284625
 H         -4.5702679741        3.1424775873        1.1469282438
 O         -3.6293913207        0.9727160855        1.2305699771
 C         -3.2753450036       -0.3674733383        1.1954387570
 O         -3.7421385905       -1.0477410959        2.1327093832
 O         -1.2206102027       -0.3178390860       -1.7881241449
 C         -2.0968281510       -2.2853815418        0.1197109569
 C         -0.5986438311       -2.4753088471        0.0930620455
 C          0.0180221567       -3.4657744830       -0.6610417629
 C          1.3930647045       -3.6196944944       -0.6265414935
 C          2.1824634703       -2.7956629274        0.1538038893
 C          1.5785359464       -1.7945951871        0.9051876500
 C          0.1985757676       -1.6501200776        0.8761073091
 H         -0.2704734224       -0.8773593684        1.4734607399
 N          2.3523515945       -0.9564876255        1.7240915172
 S          3.8126303928       -0.3092169175        1.2387583039
 O          4.7478682450       -1.3779046103        0.9919950488
 O          4.1639361027        0.6199492374        2.2880229535
 C          3.5056781858        0.5858134954       -0.2726913011
 C          3.2894036790        1.9476365391       -0.1976878339
 C          3.0474530636        2.6546802098       -1.3639968895
 C          3.0122136176        1.9884035936       -2.5794734625
 C          3.2255733662        0.6202464842       -2.6376569137
 C          3.4794622388       -0.0910605946       -1.4757087417
 H          3.6627829535       -1.1522759738       -1.4894823430
 H          3.1944371376        0.1033202790       -3.5831815822
 H          2.8165586014        2.5385800018       -3.4862043463
 H          2.8835512827        3.7194601326       -1.3222088404
 H          3.3304834660        2.4261438612        0.7676904866
 H          1.8156419192       -0.2708519699        2.2332509320
 H          3.2526046798       -2.9164519252        0.1996911089
 H          1.8578758170       -4.3971865377       -1.2137604363
 H         -0.5783882202       -4.1198909661       -1.2753625529
 H         -2.4764610698       -2.7188601894        1.0573180712
 C         -2.8029038726       -2.9533711509       -1.0439066671
 C         -3.2552856302       -4.3784136380       -0.9448615142
 C         -4.2618370175       -3.2689080566       -0.9148912120
 H         -4.8999733842       -3.1242570108       -1.7736912977
 H         -4.7370435100       -3.0313680532        0.0261468619
 H         -3.2063151451       -4.9981067044       -1.8276570288
 H         -3.0571126636       -4.9050480735       -0.0234212888
 H         -2.4525590688       -2.5908283624       -2.0035808731
