  62
        -98.94762706
 C          1.8403579903        1.3276651769       -0.1029168642
 C          2.9401960479        0.5976129090        0.4119208356
 C          3.2433978831       -0.6725430907       -0.2540053827
 C          2.4868887566       -1.0794569180       -1.2890518015
 C          2.6497097148       -2.3630945709       -2.0555886868
 C          1.9543858097       -3.5556375247       -1.3841580458
 C          2.6633348392       -4.1022229097       -0.1442535693
 H          2.2113592235       -5.0701343916        0.0819008437
 H          3.7160177394       -4.2770244099       -0.3716742733
 C          2.5416169318       -3.2050624023        1.0956168440
 H          1.7101414677       -2.5082269136        0.9583793131
 H          2.2923294598       -3.8194740751        1.9647089807
 C          3.8100594021       -2.4249041379        1.4445210844
 H          4.6012214103       -3.1232746762        1.7281867797
 H          3.5929977432       -1.7925586734        2.3095036315
 C          4.3356999023       -1.5237417604        0.3195555942
 H          5.0919109467       -0.8569039259        0.7418504439
 H          4.7973531895       -2.1276806226       -0.4613591039
 H          0.9377100514       -3.2583675918       -1.1126529667
 H          1.8858332189       -4.3571870134       -2.1236748368
 H          2.1937527718       -2.2035786543       -3.0350798516
 H          3.7085737728       -2.5836509909       -2.1940738601
 O          1.4588110669       -0.3397954505       -1.7739833897
 C          1.0715796374        0.8413839715       -1.1610570144
 O          0.0541274386        1.3562798662       -1.6643662649
 O          3.6270233356        0.9849792827        1.3963966303
 C          1.4008886942        2.5729284887        0.6487885553
 C         -0.0766070777        2.4669247591        0.9367006620
 C         -1.0030988111        3.4662029852        0.6715242031
 C         -2.3489016523        3.2609228126        0.9274533853
 C         -2.8019261191        2.0505756779        1.4187401818
 C         -1.8806174455        1.0450100738        1.6883784984
 C         -0.5318273099        1.2728174346        1.4839497900
 H          0.1701162592        0.4807503465        1.7034474637
 N         -2.2778874843       -0.2327371567        2.1415447128
 S         -2.0541828996       -1.4880650547        1.0472328825
 O         -2.5223737264       -2.6753929835        1.7308615806
 O         -0.6883028336       -1.5105450069        0.5951301878
 C         -3.1783565334       -1.0970838547       -0.2818113019
 C         -4.4287753239       -1.6865487700       -0.2759389678
 C         -5.3444764871       -1.3307965418       -1.2521603806
 C         -4.9995518116       -0.3856816300       -2.2071356434
 C         -3.7428532836        0.1987909567       -2.1956003208
 C         -2.8177073905       -0.1551446327       -1.2241420979
 H         -1.8324861675        0.2857609503       -1.2035900855
 H         -3.4669442839        0.9343813018       -2.9341256776
 H         -5.7128250697       -0.1032080704       -2.9654043569
 H         -6.3213397953       -1.7868352385       -1.2635181838
 H         -4.6492646747       -2.4169490163        0.4859485174
 H         -3.2312658114       -0.2647801132        2.4780700402
 H         -3.8550109680        1.8786614530        1.5843411405
 H         -3.0573338072        4.0471134439        0.7155626462
 H         -0.6771771267        4.3995193230        0.2426594734
 H          1.9386998629        2.5105430825        1.6106717416
 C          1.8107459471        3.8910947792        0.0108988976
 C          2.9630176258        3.9602534652       -0.9450991311
 C          1.5670114979        4.1890510357       -1.4371337582
 H          1.2813552099        5.1939948942       -1.7117582966
 H          1.0972228895        3.4204963514       -2.0297198114
 H          3.6339115509        4.8037371951       -0.8791568227
 H          3.4515523689        3.0324730174       -1.2063694274
 H          1.7152418485        4.7232139221        0.7018042468
