  62
        -98.93689866
 C         -2.4217320801       -1.1495529248        0.1903682240
 C         -2.4804599668        0.0344057265       -0.5861490015
 C         -3.8315063072        0.5050205804       -0.9265113980
 C         -4.9103562843       -0.1838384648       -0.5152562219
 C         -6.3464653767        0.1578031009       -0.8063886585
 C         -6.9488287419        1.1901026150        0.1566418615
 C         -6.4470791730        2.6228258965       -0.0281507932
 H         -6.5528857232        2.9115073198       -1.0742916195
 H         -7.1039793998        3.2697921945        0.5566007576
 C         -4.9984823833        2.8504192220        0.4265233855
 H         -4.9429242899        3.7635993597        1.0232674779
 H         -4.6852458651        2.0272503269        1.0729131775
 C         -3.9904105481        2.9932879479       -0.7139506995
 H         -2.9938618327        3.1069608965       -0.2792659235
 H         -4.2129483045        3.8946911640       -1.2892841330
 C         -3.9512579390        1.7980323560       -1.6750753642
 H         -4.8388087771        1.7926175708       -2.3074465027
 H         -3.0674511275        1.8978011543       -2.3100582643
 H         -8.0306602536        1.1841425033        0.0050537611
 H         -6.7551051367        0.8653963391        1.1815777822
 H         -6.4368437596        0.5177481596       -1.8315699594
 H         -6.9119867676       -0.7717465713       -0.7123580864
 O         -4.8112971099       -1.3182811955        0.2284376581
 C         -3.5765611213       -1.8059208267        0.6242359265
 O         -3.6381279174       -2.8163433674        1.3532869587
 H          1.3750970858       -0.9272906037       -0.3113611360
 C          1.0436481094       -0.3750430303        0.5518663806
 C         -0.1817074163       -0.6448472325        1.1380605803
 C         -0.5807292292        0.1198531371        2.2318781972
 C          0.2251202254        1.1290519767        2.7206817400
 C          1.4564777633        1.3842982665        2.1428768592
 C          1.8614849298        0.6306293114        1.0482606019
 N          3.0921751270        0.8829390055        0.4212819978
 S          3.9491239330       -0.4176152600       -0.2249581731
 O          3.4675818840       -0.6921828626       -1.5551433629
 O          3.9344723149       -1.5293645369        0.7000897127
 C          5.5842210745        0.2896585737       -0.3152284428
 C          5.8808391068        1.1381805160       -1.3654371996
 C          7.1393504836        1.7151330562       -1.4252687575
 C          8.0749811853        1.4363619552       -0.4397890475
 C          7.7636160397        0.5813342529        0.6066209648
 C          6.5060929714        0.0020166984        0.6734244856
 H          6.2214445468       -0.6742244784        1.4634229630
 H          8.4941716123        0.3639863574        1.3690697209
 H          9.0540160540        1.8861091538       -0.4895642209
 H          7.3859546047        2.3780881177       -2.2388605027
 H          5.1249869557        1.3177346272       -2.1123176843
 H          3.6885774113        1.5020604962        0.9526371822
 H          2.0905487015        2.1688603127        2.5272991042
 H         -0.1021871029        1.7169116428        3.5653070350
 H         -1.5403308417       -0.0859131590        2.6880935057
 C         -1.0990939529       -1.7385463046        0.6490523347
 H         -1.3532760553       -2.3722392914        1.5160058260
 C         -0.4377959795       -2.6511970501       -0.3727401277
 C         -1.2529710443       -3.4602844683       -1.3354418221
 C         -0.4093030905       -2.3278648749       -1.8348421333
 H          0.4904307051       -2.5544646246       -2.3890831085
 H         -0.8972985469       -1.4207052741       -2.1545732145
 H         -2.3253037006       -3.3298045081       -1.3150686591
 H         -0.9394098143       -4.4712420581       -1.5479961510
 H          0.4469186197       -3.1353469824        0.0326989512
 O         -1.4734476807        0.6748347022       -0.9827301116
