  62
        -98.94476609
 C         -1.8422257459       -0.7079487403        0.4050069200
 C         -2.4628839243       -0.1338057879       -0.7309321178
 C         -3.5325184737        0.8325173977       -0.4484115726
 C         -3.8223002891        1.1600329285        0.8237962567
 C         -4.8699500967        2.1439623683        1.2691240535
 C         -6.2828016563        1.5511672143        1.3605309062
 C         -6.9571483338        1.2663995538        0.0178945581
 H         -8.0092488877        1.0615175866        0.2256415196
 H         -6.9167817419        2.1610225593       -0.6043030791
 C         -6.3648013692        0.0760828935       -0.7494780793
 H         -5.7695044897       -0.5365596879       -0.0685979376
 H         -7.1741343874       -0.5552904061       -1.1229494144
 C         -5.5010684435        0.4625001861       -1.9503123260
 H         -5.1057748543       -0.4532484604       -2.3970970581
 H         -6.1180149811        0.9634288979       -2.6995778431
 C         -4.3138815879        1.3723658102       -1.6077805206
 H         -4.6626184454        2.3831391969       -1.3966013931
 H         -3.6449582882        1.4058533302       -2.4714178669
 H         -6.2383943024        0.6315080742        1.9485071113
 H         -6.9006851402        2.2662476560        1.9086244032
 H         -4.8766837777        3.0024274473        0.5967810357
 H         -4.5744786618        2.4842530477        2.2641103454
 O         -3.1561150695        0.6324618034        1.8859789203
 C         -2.1684441242       -0.3231510898        1.7046918491
 O         -1.6518669607       -0.7356539842        2.7641289256
 O         -2.1442417045       -0.4098302253       -1.9158164621
 C         -0.7575802656       -1.7552762935        0.2280682187
 C          0.4151712364       -1.1666766455       -0.5189695702
 C          1.0445634822       -1.8014163290       -1.5811180884
 C          2.1167332859       -1.2019775397       -2.2206790565
 C          2.5906279434        0.0299446581       -1.8108567015
 C          1.9819890170        0.6631828687       -0.7337687482
 C          0.9094631130        0.0612471820       -0.0948522307
 H          0.4350851246        0.5576099155        0.7432818776
 N          2.4707189033        1.9045063686       -0.2926372970
 S          4.1283611583        2.0845738906       -0.1484396870
 O          4.3136341545        3.0818113791        0.8825076644
 O          4.6951821315        2.4007899743       -1.4357952521
 C          4.7279650049        0.4956180883        0.3993299041
 C          4.2479965109       -0.0040509732        1.5938556393
 C          4.6756984369       -1.2512431649        2.0186834265
 C          5.5715061898       -1.9740955222        1.2453942248
 C          6.0490365995       -1.4558892262        0.0518718566
 C          5.6230298803       -0.2095849903       -0.3789619260
 H          5.9657125835        0.2297359339       -1.3015485149
 H          6.7474131790       -2.0191242725       -0.5456927872
 H          5.8987579833       -2.9465920210        1.5776032836
 H          4.3046230291       -1.6547431817        2.9472546156
 H          3.5545176968        0.5831136105        2.1749613084
 H          1.9877317837        2.2744864325        0.5122921406
 H          3.4122906250        0.5171251147       -2.3101922993
 H          2.5879914252       -1.7007254579       -3.0535363926
 H          0.6901421737       -2.7617814863       -1.9167071548
 H         -0.4166355098       -2.0120190793        1.2418463328
 C         -1.3321702498       -2.9963916917       -0.4221988378
 C         -0.7480825086       -4.3440724128       -0.1269388829
 C         -2.0891672518       -3.9707907184        0.4276730184
 H         -2.9699475265       -4.4397136019        0.0151637080
 H         -2.1662018990       -3.7528086329        1.4833410871
 H         -0.7097803668       -5.0750663824       -0.9203568787
 H          0.0862209292       -4.3887373287        0.5564064914
 H         -1.7097248706       -2.8062425884       -1.4200933802
