  62
        -98.94075133
 C         -2.0165993823       -1.3409584985        0.3695484611
 C         -2.4960082061       -0.6356698240       -0.7622737076
 C         -3.6958466116        0.1887293892       -0.5417401844
 C         -4.2516184304        0.2412010550        0.6815250572
 C         -5.4381882655        1.0817072267        1.0525725322
 C         -5.0017299828        2.4620364496        1.5633649326
 C         -3.9877834101        3.1634432069        0.6591498371
 H         -3.7762345838        4.1389998580        1.1026132029
 H         -3.0517896227        2.5995510614        0.6651624534
 C         -4.4537786784        3.3516830690       -0.7913739346
 H         -4.2121722472        4.3688886640       -1.1068466693
 H         -5.5375331524        3.2436738525       -0.8489525988
 C         -3.7960268150        2.4055976707       -1.7979710175
 H         -4.0273326795        2.7664207188       -2.8037379275
 H         -2.7094548441        2.4419661196       -1.6812964275
 C         -4.2399526860        0.9390901434       -1.7245602613
 H         -5.3301101872        0.8825816650       -1.7503993546
 H         -3.8469874270        0.4306353517       -2.6098995365
 H         -5.8896402155        3.0877134075        1.6700181029
 H         -4.5518449171        2.3396935400        2.5514695994
 H         -5.9893089142        0.5696304297        1.8432308930
 H         -6.0851790252        1.1916141741        0.1845768200
 O         -3.7518266420       -0.4334255760        1.7484867782
 C         -2.6153000986       -1.2166148543        1.6255664451
 O         -2.2355597914       -1.7367044021        2.6940801153
 O         -1.9619698828       -0.6806673534       -1.8994615732
 C         -0.7703427081       -2.2075846935        0.2985702742
 C          0.3208893788       -1.4725639671       -0.4415418403
 C          0.9681315725       -1.9702670624       -1.5637909334
 C          1.9563547258       -1.2288975113       -2.1890005137
 C          2.3238626693        0.0142607757       -1.7099789479
 C          1.6902945138        0.5168238638       -0.5798583498
 C          0.7084891912       -0.2310727849        0.0501278103
 H          0.2120025526        0.1639216853        0.9289098323
 N          2.0624114679        1.7756338647       -0.0780396469
 S          3.6941439838        2.1305981045        0.0238552884
 O          3.8054884496        3.0881071096        1.1021876078
 O          4.1778231058        2.5723901215       -1.2603496057
 C          4.4817135631        0.5923280929        0.4679620942
 C          4.1080503346       -0.0106194992        1.6527682446
 C          4.6831468047       -1.2222915508        1.9989225890
 C          5.6179717201       -1.8075207140        1.1583649820
 C          5.9871672847       -1.1867054242       -0.0245598986
 C          5.4131837589        0.0244328143       -0.3769022591
 H          5.6686031368        0.5399280163       -1.2883203705
 H          6.7160379212       -1.6429992275       -0.6746822966
 H          6.0609104676       -2.7527611859        1.4295547534
 H          4.3970549381       -1.7059884144        2.9191917497
 H          3.3823007695        0.4725281062        2.2875785564
 H          1.5728556278        2.0471982777        0.7612551629
 H          3.0754932584        0.6117131262       -2.1999168333
 H          2.4420283475       -1.6223309461       -3.0688152433
 H          0.6802704625       -2.9262055823       -1.9683088760
 H         -0.4453271732       -2.3178104442        1.3466487824
 C         -1.0150523512       -3.6154134614       -0.2238720774
 C         -2.3537245141       -4.2730180882       -0.0743589852
 C         -1.8549954922       -3.8895892458       -1.4336001351
 H         -1.5447173729       -4.6776891128       -2.1042089262
 H         -2.3053038350       -3.0455173212       -1.9307644801
 H         -2.3837188683       -5.3196470785        0.1892756208
 H         -3.1526566666       -3.6910432400        0.3622952372
 H         -0.1508514562       -4.2555997226       -0.0761352862
