  62
        -98.94051208
 C         -1.8050666210       -0.0485466374        0.9579132227
 C         -3.1582441155        0.1319110884        1.3425486755
 C         -4.1696331246       -0.3860965598        0.4149320156
 C         -3.7827826699       -0.9804766668       -0.7281589457
 C         -4.6912420899       -1.5864134214       -1.7631880959
 C         -5.2528508531       -0.5744580682       -2.7711336292
 C         -6.3235336080        0.3675939467       -2.2191639407
 H         -6.7810243982        0.8688378623       -3.0744988517
 H         -7.1033859170       -0.2167707225       -1.7297387836
 C         -5.7909916220        1.4328056833       -1.2504461516
 H         -4.7072827618        1.5163602290       -1.3617351565
 H         -6.2139312873        2.4058689053       -1.5105224405
 C         -6.1200667716        1.1745664764        0.2200431162
 H         -7.2013465751        1.2222952194        0.3670069281
 H         -5.6642762276        1.9680800041        0.8179537224
 C         -5.6135410812       -0.1714468568        0.7545734075
 H         -5.7019262398       -0.1622087730        1.8438164085
 H         -6.2224308444       -0.9853124127        0.3611246451
 H         -5.6900988623       -1.1434024850       -3.5949296523
 H         -4.4248637973        0.0122686842       -3.1759954967
 H         -5.5140241669       -2.1050179654       -1.2700633403
 H         -4.0946990711       -2.3202466260       -2.3094689451
 O         -2.4761668027       -1.1163649166       -1.0725551382
 C         -1.4553877866       -0.6364640479       -0.2586385018
 O         -0.3179555983       -0.8009108304       -0.7335218704
 O         -3.5026271184        0.7015311045        2.4121480610
 C         -0.7345816656        0.4837291446        1.8929423457
 C          0.2936768758        1.2779454521        1.1260719401
 C         -0.1426027200        2.2807908939        0.2631510090
 C          0.7550612347        3.0192581365       -0.4823356335
 C          2.1161078599        2.7922031708       -0.3689353847
 C          2.5636013549        1.8105406851        0.5021142744
 C          1.6575837739        1.0599391495        1.2427210873
 H          2.0295832343        0.2867971062        1.8968218525
 N          3.9531821495        1.5953509672        0.6338625075
 S          4.7669147548        0.9120917509       -0.6611909221
 O          6.1700121978        0.9717606856       -0.3177655789
 O          4.3729974405        1.5894313500       -1.8690781083
 C          4.2399885016       -0.7924778679       -0.6881789875
 C          2.9511943405       -1.0866340247       -1.0847082632
 C          2.5239865030       -2.4043367703       -1.0431336099
 C          3.3860379564       -3.3996436266       -0.6105159066
 C          4.6794546180       -3.0875955331       -0.2178768387
 C          5.1110027158       -1.7717575639       -0.2502360625
 H          6.1054628076       -1.4821929395        0.0491316812
 H          5.3483258856       -3.8641514919        0.1170687111
 H          3.0461097560       -4.4230108749       -0.5777636762
 H          1.5095247211       -2.6256039551       -1.3342071669
 H          2.2844718203       -0.3034027470       -1.4071789052
 H          4.2006438210        1.0908747769        1.4743209678
 H          2.8311998643        3.3471200737       -0.9536117149
 H          0.3948654181        3.7822274099       -1.1563258371
 H         -1.2051160667        2.4639607053        0.1723080267
 H         -1.2765119089        1.1847333121        2.5504690615
 C         -0.1236960911       -0.5747634578        2.8013006451
 C         -0.8180978870       -1.8771251345        3.0617504848
 C          0.4457273584       -1.8510170968        2.2583990600
 H          1.3459490326       -2.2463825416        2.7064881823
 H          0.3832217207       -2.0066505134        1.1932123264
 H         -0.7865577504       -2.2809645380        4.0626687911
 H         -1.7487410910       -2.0636380268        2.5458064084
 H          0.3907983848       -0.1341825310        3.6500763634
