  62
        -98.94305504
 C         -1.7023562885       -0.9959060097        0.2780009438
 C         -2.9000109120       -0.8357511187        1.0254030399
 C         -3.6464104387        0.4101930081        0.8094608309
 C         -3.1398969057        1.3426976412       -0.0167730227
 C         -3.8102461586        2.6402421145       -0.3611347044
 C         -4.6928070359        2.4941216729       -1.6087374967
 C         -5.6348690066        1.2910308843       -1.5620679180
 H         -6.2282857986        1.3067935730       -2.4788696394
 H         -5.0430961881        0.3728301286       -1.5797831304
 C         -6.5725840535        1.2653173546       -0.3468683256
 H         -6.6269924156        2.2585643618        0.1003047316
 H         -7.5781305380        1.0077065450       -0.6862085806
 C         -6.1909400502        0.2460462712        0.7284544630
 H         -6.0474462607       -0.7351415778        0.2683485697
 H         -7.0279560272        0.1590652851        1.4263672011
 C         -4.9412711294        0.5813266883        1.5523365209
 H         -5.0257739550        1.5938243406        1.9522990735
 H         -4.8995584216       -0.1175689581        2.3929379636
 H         -5.2752532034        3.4093881044       -1.7289700058
 H         -4.0447788453        2.3871862761       -2.4818528038
 H         -4.4108100420        2.9686839089        0.4848610734
 H         -3.0391010685        3.3864274794       -0.5591452312
 O         -1.9667000479        1.1809725459       -0.6746730060
 C         -1.2273417961        0.0069441582       -0.5698082513
 O         -0.2021072162        0.0102007910       -1.2747600056
 O         -3.3252984353       -1.6989465650        1.8381600192
 C         -0.9173557350       -2.2777933038        0.5062921591
 C          0.5076452053       -1.9335113519        0.8506545641
 C          0.8364690013       -1.5689525405        2.1527097370
 C          2.1240485288       -1.1795879159        2.4729501513
 C          3.1010895837       -1.1139067430        1.4947816217
 C          2.7735060033       -1.4525229993        0.1884086287
 C          1.4932342527       -1.8905523808       -0.1220195008
 H          1.2508381255       -2.1511001089       -1.1401915185
 N          3.7368233460       -1.3271006772       -0.8260824355
 S          4.7531700151       -0.0010820353       -0.7843581353
 O          5.0902053004        0.2635051276       -2.1666475386
 O          5.8746847878       -0.2905610218        0.0778629634
 C          3.8323072441        1.3698442311       -0.0987211263
 C          2.5354848760        1.6065616716       -0.5079985403
 C          1.8547729414        2.6888164770        0.0275864558
 C          2.4766322148        3.5184963687        0.9468457920
 C          3.7825079414        3.2712104205        1.3414563378
 C          4.4665114834        2.1869121926        0.8169210840
 H          5.4780224371        1.9504125455        1.1054399846
 H          4.2663802937        3.9159787628        2.0573774073
 H          1.9393393729        4.3584105723        1.3586509516
 H          0.8344726713        2.8624290181       -0.2772915437
 H          2.0404323866        0.9519486598       -1.2076363031
 H          3.3631569950       -1.4646968234       -1.7540032870
 H          4.1072651022       -0.8003193889        1.7228245781
 H          2.3685695509       -0.9116775006        3.4894131106
 H          0.0667112823       -1.5873808458        2.9115300661
 H         -1.3869648776       -2.7272661628        1.3955830412
 C         -1.0254122761       -3.3090066915       -0.6071860682
 C         -2.3485432915       -3.5799170427       -1.2573661179
 C         -1.2395075123       -2.9553785236       -2.0470253169
 H         -0.7445431619       -3.5567546128       -2.7960901446
 H         -1.3172966756       -1.9125984146       -2.3108040225
 H         -2.6238789854       -4.6020245923       -1.4690063521
 H         -3.1793809068       -2.9547075910       -0.9639296085
 H         -0.3974900607       -4.1733092588       -0.4116492732
