  62
        -98.94667601
 C         -1.9939590995       -1.4489056307       -0.1124866095
 C         -1.7236790299       -0.1962635206       -0.7116713295
 C         -2.8828463603        0.6870928889       -0.8992185398
 C         -4.1058275201        0.2537754283       -0.5428970800
 C         -5.3615104905        1.0713928578       -0.6256324303
 C         -5.6157734411        1.8303118377        0.6847045296
 C         -4.3963731616        2.5902997183        1.2072059998
 H         -3.6231314013        1.8724271186        1.4903346300
 H         -4.7034004020        3.1074784782        2.1188592297
 C         -3.8067689818        3.6052687385        0.2178926699
 H         -3.5956348723        4.5330217686        0.7537298999
 H         -4.5402724617        3.8375568681       -0.5550376303
 C         -2.4986459414        3.1634536690       -0.4412740298
 H         -1.7945151915        2.8360928394        0.3283256204
 H         -2.0625784817        4.0319914092       -0.9422794198
 C         -2.6253457707        2.0466392389       -1.4853864298
 H         -1.6694615106        1.9685212293       -2.0120281996
 H         -3.3964650807        2.3075399586       -2.2129131700
 H         -5.9223583810        1.1103028676        1.4470930095
 H         -6.4406735114        2.5271057374        0.5252287294
 H         -5.2789723506        1.7722181078       -1.4540703503
 H         -6.1994092702        0.3980202674       -0.8137015805
 O         -4.3316947797       -0.9754337817       -0.0115718800
 C         -3.2839078394       -1.8473727113        0.2369856703
 O         -3.6229861690       -2.9257433814        0.7648092302
 H          1.8801412208       -2.1047895690       -0.2436441286
 C          1.5258891104       -1.6595199991        0.6703683813
 C          0.1867965604       -1.7220589197        1.0200962910
 C         -0.2191647401       -1.1298050298        2.2144239709
 C          0.6882983794       -0.4793367794        3.0267914110
 C          2.0213369294       -0.3979824088        2.6615692113
 C          2.4389341000       -0.9914871087        1.4774359615
 N          3.7923296400       -0.9498231081        1.0935977817
 S          4.2288118801       -0.3405139280       -0.4041829582
 O          3.6123700906       -1.1147786683       -1.4491376483
 O          5.6758713101       -0.3336611674       -0.3836362479
 C          3.6329290693        1.3414143817       -0.4098466384
 C          2.2902327593        1.5899832311       -0.6117218587
 C          1.8425276087        2.9013306309       -0.5550556889
 C          2.7325032782        3.9327655513       -0.3010087287
 C          4.0784559583        3.6642478019       -0.1004879284
 C          4.5336506288        2.3571126221       -0.1499817283
 H          5.5708238389        2.1014412426       -0.0038433580
 H          4.7711072679        4.4670655823        0.0950560617
 H          2.3749257977        4.9497082112       -0.2604105188
 H          0.7933769186        3.0970073205       -0.7110700691
 H          1.6043745397        0.7820099208       -0.8111917688
 H          4.4016180097       -0.5587988478        1.7987815319
 H          2.7320867391        0.1165808315        3.2904793115
 H          0.3562670490       -0.0247971295        3.9480703910
 H         -1.2630043102       -1.1869635703        2.4937404307
 C         -0.8511039091       -2.4090057002        0.1658716608
 H         -1.2816453789       -3.2375151604        0.7472353608
 C         -0.3010104986       -2.9625835300       -1.1316244690
 C          0.3569591620       -4.3082638097       -1.1553045288
 C         -0.9934351680       -4.1226670704       -1.7781728091
 H         -1.0735246577       -4.1411098004       -2.8547826292
 H         -1.8541014279       -4.5320192207       -1.2689627793
 H          0.4151436020       -4.8529096497       -0.2249001088
 H          1.2085636022       -4.4518250294       -1.8035142187
 H          0.0956621812       -2.1931420599       -1.7848202790
 O         -0.5738984300        0.1708693499       -1.0664858693
