  62
        -98.93664000
 C         -2.4372076559       -0.3315979980        0.5088847141
 C         -2.1918778699        0.4195122249       -0.6628180485
 C         -1.7932242035        1.8264969431       -0.4755125774
 C         -1.6682541380        2.3085290112        0.7735795766
 C         -1.2038121740        3.6708908929        1.2250844789
 C         -1.7124190472        4.8895702315        0.4408797493
 C         -0.6368813852        5.5473733380       -0.4256616981
 H         -0.9070984186        6.5940768065       -0.5825418110
 H          0.3067964411        5.5317236371        0.1234880088
 C         -0.4296883091        4.9140336420       -1.8000071646
 H         -1.2886332564        5.1415762435       -2.4351302645
 H          0.4450527498        5.3866197068       -2.2527090815
 C         -0.2223038856        3.3983057549       -1.8017490147
 H          0.4327203218        3.0873512938       -0.9872868219
 H          0.2857596326        3.1301863378       -2.7307239404
 C         -1.5327704131        2.5989913595       -1.7391325058
 H         -2.3838740768        3.2560268786       -1.9397551176
 H         -1.5363993878        1.8406898490       -2.5281161991
 H         -2.5716940570        4.6085125915       -0.1652817144
 H         -2.0560826112        5.6280209063        1.1671661862
 H         -1.5185482932        3.7438116282        2.2690792418
 H         -0.1099405680        3.6611359907        1.2316504559
 O         -1.9300859569        1.5490133122        1.8780424591
 C         -2.2916683116        0.2191668205        1.7789935360
 O         -2.4630075975       -0.3545318661        2.8759158127
 H         -0.1595504557       -1.3990872361        0.9116763909
 C         -0.2829647843       -2.1048296372        0.1017338561
 C         -1.5615797939       -2.4761656501       -0.2957071559
 C         -1.6944677985       -3.4026805478       -1.3208166175
 C         -0.5710173267       -3.9073416577       -1.9541947589
 C          0.6967595198       -3.4902944527       -1.5940778775
 C          0.8401291453       -2.5796516818       -0.5521116905
 N          2.1107202075       -2.1422049810       -0.1390509255
 S          2.2574933624       -0.5795505797        0.4861429608
 O          1.9186613669       -0.6102277806        1.8886336096
 O          1.5390157044        0.3724907946       -0.3287507242
 C          4.0166000781       -0.3422904530        0.3079469734
 C          4.8605218861       -0.9624768086        1.2102407357
 C          6.2297596484       -0.8119728420        1.0593135796
 C          6.7297898008       -0.0482173104        0.0147559042
 C          5.8707131849        0.5701936181       -0.8810031061
 C          4.4998038924        0.4219307816       -0.7369803117
 H          3.7921952420        0.8870588641       -1.4046583901
 H          6.2616037078        1.1662218475       -1.6897711464
 H          7.7958454516        0.0678009343       -0.1002135384
 H          6.9003612364       -1.2892421910        1.7554541264
 H          4.4241784308       -1.5370995794        2.0105709010
 H          2.8348089901       -2.3419634402       -0.8158122360
 H          1.5681840732       -3.8620119123       -2.1111404039
 H         -0.6869564721       -4.6206239100       -2.7561238291
 H         -2.6763701558       -3.7158249564       -1.6358706802
 C         -2.7274348612       -1.8186944422        0.4051290420
 H         -2.7674388434       -2.1944068173        1.4386438340
 C         -4.0620966251       -2.0703944780       -0.2628054942
 C         -4.8498339254       -3.3017636198        0.0670207148
 C         -5.3112054981       -1.9632522880        0.5574246061
 H         -6.1867764115       -1.5201107222        0.1075427785
 H         -5.1943259524       -1.7311823929        1.6063037984
 H         -4.4284795253       -3.9861656133        0.7877658900
 H         -5.4143994109       -3.7787962903       -0.7197524713
 H         -4.0946813829       -1.6933033443       -1.2782707049
 O         -2.2933151700       -0.0646621924       -1.8216795564
