  62
        -98.94415087
 C         -1.8540625700       -1.3439295206        0.1226026309
 C         -2.0387960918       -0.3625590993       -0.8813236944
 C         -3.3919790865        0.2053652079       -0.9864103719
 C         -4.3611303808       -0.2213024309       -0.1576905721
 C         -5.7622597532        0.3143981295       -0.1219546597
 C         -5.8889525772        1.4745087177        0.8752982237
 C         -4.8102373490        2.5462266986        0.7171574770
 H         -5.0195834030        3.3287343144        1.4498149919
 H         -3.8394772550        2.1168820965        0.9764755025
 C         -4.7318727201        3.1667804117       -0.6847928975
 H         -5.6562517510        2.9704554236       -1.2292258301
 H         -4.6398231722        4.2502619642       -0.5830638197
 C         -3.5410124634        2.6956681213       -1.5216587714
 H         -2.6212409518        2.8054426498       -0.9409782239
 H         -3.4577042177        3.3516715693       -2.3924041506
 C         -3.6179469796        1.2537928521       -2.0397117497
 H         -4.5735415926        1.0948907642       -2.5431151300
 H         -2.8171990989        1.1214239743       -2.7730255757
 H         -6.8746596209        1.9274989937        0.7545929646
 H         -5.8226157626        1.0698761036        1.8879225454
 H         -6.0452726333        0.6461156800       -1.1190451734
 H         -6.4303255070       -0.4916434115        0.1861256747
 O         -4.1533700157       -1.1725880476        0.7865888435
 C         -2.9067126923       -1.7479653815        0.9523221791
 O         -2.8593147576       -2.6055985432        1.8565388418
 H          0.4422522104        0.3909738312       -0.2616973597
 C          0.8416013503        0.0344221690        0.6762922441
 C          0.4314419583       -1.1981025147        1.1642910274
 C          0.9586245517       -1.6406832629        2.3715493449
 C          1.8737737827       -0.8698828650        3.0683656256
 C          2.2790514872        0.3590312319        2.5783156708
 C          1.7494905605        0.8125508220        1.3778920796
 N          2.1675193735        2.0607283289        0.8581342068
 S          3.7623234325        2.0840461028        0.3385550469
 O          4.6264948267        2.0075933655        1.4888721844
 O          3.8951456258        3.2645859380       -0.4844303236
 C          3.9214499768        0.6083552435       -0.6494258935
 C          3.5306563783        0.6563170156       -1.9724296710
 C          3.5716266044       -0.5054490969       -2.7256818342
 C          3.9891650525       -1.6908010845       -2.1406339976
 C          4.3697568988       -1.7243433553       -0.8080718936
 C          4.3352575566       -0.5646581732       -0.0511031939
 H          4.6254713737       -0.5470021251        0.9865169565
 H          4.6879426841       -2.6493999077       -0.3551422102
 H          4.0202410093       -2.5937199231       -2.7304781933
 H          3.2711967374       -0.4838219282       -3.7610830450
 H          3.2138193385        1.5985903011       -2.3906214826
 H          1.5770178874        2.3738747205        0.0991508396
 H          3.0021123116        0.9669230960        3.0978197764
 H          2.2752110238       -1.2290478280        4.0037261108
 H          0.6401527164       -2.5936852697        2.7680578293
 C         -0.5310885215       -2.0518905334        0.3747676529
 H         -0.7822638356       -2.9279162232        0.9870897931
 C          0.1355744377       -2.5357964302       -0.9001039158
 C          1.0640322834       -3.7086532762       -0.8320525086
 C         -0.2768401202       -3.8506834246       -1.4863662916
 H         -0.3235695998       -3.9427787263       -2.5609385847
 H         -1.0429280140       -4.4095473424       -0.9681210150
 H          1.9425652923       -3.7030731845       -1.4571890075
 H          1.2087526058       -4.1770904372        0.1294733290
 H          0.3794247292       -1.7373131618       -1.5882267901
 O         -1.1363938099        0.0426725784       -1.6635793153
