  62
        -98.93778468
 C          1.8488188998        1.0996712145       -0.1376986637
 C          2.4058053692       -0.0288368916       -0.7833568596
 C          3.8729236850       -0.1532237843       -0.7211484270
 C          4.5915299287        0.7926063829       -0.0923254737
 C          6.0895391141        0.8862405017        0.0559895825
 C          6.8454143414       -0.4005995815        0.4168047776
 C          6.0664523875       -1.3877956275        1.2982813430
 H          5.1695416208       -0.9093888561        1.6952060781
 H          6.6889713986       -1.6701550161        2.1493792189
 C          5.6756545071       -2.6693355455        0.5579897653
 H          5.4717538782       -3.4514992363        1.2932131592
 H          6.5264341180       -2.9995834806       -0.0421400938
 C          4.4433093707       -2.5612247230       -0.3397330891
 H          3.5429024990       -2.4637511303        0.2732293628
 H          4.3495109954       -3.4968117405       -0.8965050643
 C          4.4521986277       -1.3929285601       -1.3390742823
 H          3.7883377119       -1.6556137043       -2.1673355799
 H          5.4499332643       -1.2192106289       -1.7349939493
 H          7.7585987135       -0.0963028705        0.9310239777
 H          7.1545419337       -0.9091916447       -0.4953288035
 H          6.4988526173        1.2928494445       -0.8732537637
 H          6.2511311596        1.6362102546        0.8338858733
 O          4.0111026791        1.8733332124        0.5028147567
 C          2.6385087634        2.0501472890        0.5061977112
 O          2.2505719160        3.0715027890        1.1088601430
 H         -1.8170345007       -0.1290603930       -1.1218597213
 C         -1.4299969683       -0.5092943015       -0.1917004635
 C         -0.3466646505        0.0940167732        0.4267378982
 C          0.1186372499       -0.4411151268        1.6261889122
 C         -0.4628928802       -1.5678566186        2.1718949891
 C         -1.5342663539       -2.1779067192        1.5425038196
 C         -2.0165855349       -1.6443798799        0.3547143109
 N         -3.0996429860       -2.2427758555       -0.3067097116
 S         -4.2842650881       -1.2847391624       -0.9889687882
 O         -5.4474416346       -2.1429611403       -1.0586795176
 O         -3.8342746720       -0.7333879820       -2.2414272547
 C         -4.5566525937        0.0196519097        0.1977283701
 C         -4.3469357262        1.3335981094       -0.1643720024
 C         -4.5402262743        2.3290483201        0.7804532551
 C         -4.9350178023        1.9936790670        2.0658504944
 C         -5.1476133022        0.6680735693        2.4132205981
 C         -4.9574944465       -0.3303576435        1.4724039772
 H         -5.1249484741       -1.3687800238        1.7074486163
 H         -5.4582795445        0.4114097243        3.4131445954
 H         -5.0800083214        2.7703101005        2.8001639746
 H         -4.3798707944        3.3608176084        0.5103265766
 H         -4.0366677024        1.5511359444       -1.1731850339
 H         -3.4920809732       -3.0451233298        0.1630205363
 H         -1.9840239896       -3.0655398288        1.9605730111
 H         -0.0813051794       -1.9761984654        3.0956154443
 H          0.9577292838        0.0339730399        2.1168075997
 C          0.3450649428        1.3086351695       -0.1416909049
 H          0.1543263869        2.1597426216        0.5285578530
 C         -0.1171884992        1.6747287292       -1.5366435970
 C         -1.2917194780        2.5832111447       -1.7327010433
 C          0.0933123178        3.0762639854       -2.0227426659
 H          0.3858547124        3.2273356783       -3.0510463481
 H          0.5434627602        3.7757229452       -1.3331044661
 H         -1.7832024429        2.9579046288       -0.8477870808
 H         -1.9535297444        2.3930981065       -2.5648944142
 H          0.0341218883        0.8727193644       -2.2506487446
 O          1.7171619120       -0.8907044800       -1.3888607872
