  62
        -98.94247489
 C          1.9367017227        1.0725425563       -0.1738945108
 C          1.0919759646        1.5400717999       -1.2101535427
 C          0.1090382905        2.5793754603       -0.8588493318
 C          0.0768591246        3.0384405067        0.4040863320
 C         -0.8874675921        4.0274411311        0.9982426356
 C         -2.0926585692        3.2978017307        1.6186209981
 C         -3.2608105284        3.0665855596        0.6619076662
 H         -4.0007351963        2.4666938391        1.1972205271
 H         -3.7240030467        4.0250251325        0.4161072692
 C         -2.8895903647        2.3421201874       -0.6338599217
 H         -2.2063452645        1.5248412441       -0.3970698865
 H         -3.7971671584        1.8919415833       -1.0413989425
 C         -2.2716804077        3.2677742882       -1.6923665019
 H         -2.4319918623        4.3038803032       -1.3946568016
 H         -2.7981886827        3.1320888638       -2.6391831580
 C         -0.7816304185        3.0391228707       -1.9814247394
 H         -0.6756711786        2.2682470446       -2.7508208187
 H         -0.3583801207        3.9578752378       -2.4019022945
 H         -1.7482411941        2.3335651593        2.0047010719
 H         -2.4572350725        3.8791875351        2.4684426284
 H         -0.3480963375        4.5486292328        1.7920288009
 H         -1.2065416456        4.7536503210        0.2559648738
 O          0.9350236843        2.5971139209        1.3618863249
 C          1.8508789617        1.5847797097        1.1223130979
 O          2.5132134791        1.2613542023        2.1272224091
 O          1.1471745680        1.0905887172       -2.3884317541
 C          2.8593672884       -0.0815657661       -0.5146764883
 C          2.2151873983       -1.4180340877       -0.2069514533
 C          2.6397319859       -2.5758481133       -0.8524500644
 C          2.0199055482       -3.7869745919       -0.6061383551
 C          0.9389784856       -3.8664712953        0.2557862019
 C          0.5075803645       -2.7177841110        0.9059147158
 C          1.1691349951       -1.5160900861        0.6953882751
 H          0.8344760201       -0.6457641875        1.2367817120
 N         -0.6054763505       -2.7324338207        1.7660398292
 S         -1.8035384733       -1.5798591188        1.5455534121
 O         -1.3161150436       -0.2685101894        1.8862689133
 O         -2.9185419084       -2.0688687599        2.3274977538
 C         -2.2015537475       -1.6722852731       -0.1894611136
 C         -3.2260556271       -2.5058465675       -0.5951023978
 C         -3.5001306818       -2.6222827983       -1.9480790152
 C         -2.7420977064       -1.9164429033       -2.8710438599
 C         -1.7151209551       -1.0872369066       -2.4488904540
 C         -1.4421598618       -0.9617545248       -1.0963104829
 H         -0.6487352052       -0.3204774769       -0.7473804410
 H         -1.1111145255       -0.5335639845       -3.1508417608
 H         -2.9522062242       -2.0107721123       -3.9246934631
 H         -4.3006590434       -3.2639773031       -2.2792814992
 H         -3.7926884490       -3.0311849755        0.1566174853
 H         -1.0238079355       -3.6442415482        1.8858961486
 H          0.4339250923       -4.8053796318        0.4234642948
 H          2.3638459583       -4.6771390956       -1.1098355071
 H          3.4554552975       -2.5202479678       -1.5562075015
 H          2.9947018649       -0.0335550723       -1.6053172526
 C          4.2243147204        0.0124003068        0.1393944063
 C          5.4434897227       -0.4622305558       -0.5909165307
 C          5.2196257466        1.0043942771       -0.3810569089
 H          5.8363665060        1.5329336760        0.3297712634
 H          4.9260342887        1.6024135840       -1.2316984560
 H          6.2221998270       -0.9497918289       -0.0249795534
 H          5.3186768794       -0.8458875485       -1.5919641213
 H          4.1902059488       -0.1321151179        1.2119981102
