  62
        -98.94410454
 C         -2.0868571219       -1.3075556139       -0.1365538924
 C         -2.4713886549       -0.2438450917       -0.9882988383
 C         -3.8628681997        0.2134896137       -0.8529527613
 C         -4.6787374506       -0.3954352494        0.0260718743
 C         -6.0987849984        0.0047332758        0.3002219586
 C         -6.1771140566        1.0193317506        1.4496133500
 C         -5.2050562571        2.1907122021        1.3072601821
 H         -5.3703460869        2.8554968828        2.1579108781
 H         -4.1810463538        1.8178898866        1.3866319764
 C         -5.3543975274        2.9850823160        0.0021479725
 H         -6.3263672559        2.7792488828       -0.4477875269
 H         -5.3250652868        4.0513358085        0.2364854389
 C         -4.2541818002        2.7261178117       -1.0289794089
 H         -3.2746577598        2.8399598281       -0.5568321831
 H         -4.3319578645        3.4900051700       -1.8073802991
 C         -4.2988689614        1.3587001884       -1.7227293360
 H         -5.2986530949        1.1817146653       -2.1242214223
 H         -3.5926846686        1.3872423022       -2.5577681128
 H         -7.1993440942        1.3976645835        1.5073456511
 H         -5.9530769457        0.5011980624        2.3848779092
 H         -6.5325414428        0.4289140406       -0.6031647798
 H         -6.6606906670       -0.8887420560        0.5774466970
 O         -4.2798945153       -1.4284373515        0.8108449856
 C         -2.9768121626       -1.8923031933        0.7679108337
 O         -2.7360188681       -2.8201782546        1.5655417908
 H          0.9027131117       -0.0366318755       -1.4849548505
 C          0.9810960871        0.0613329606       -0.4141437055
 C          0.2507593478       -0.7798416156        0.4105184126
 C          0.3506675290       -0.6139786835        1.7889900028
 C          1.1593746381        0.3701486596        2.3265278484
 C          1.8836176069        1.2118143572        1.5001719790
 C          1.7835532881        1.0583913016        0.1241762055
 N          2.5305142025        1.9035265409       -0.7182207098
 S          4.1761725410        1.9735721051       -0.4154033170
 O          4.4309104779        2.8973748464        0.6617162494
 O          4.7915056277        2.2975721357       -1.6832653026
 C          4.6045941111        0.3174321032        0.0933715988
 C          4.4374845040       -0.7054320886       -0.8192931095
 C          4.7043743731       -2.0059676368       -0.4250086392
 C          5.1288512774       -2.2607863389        0.8702270554
 C          5.2957568690       -1.2227527816        1.7733264434
 C          5.0279009895        0.0802615857        1.3848360137
 H          5.1394402337        0.9160649877        2.0560070148
 H          5.6274827799       -1.4240804894        2.7791713692
 H          5.3309001772       -3.2752622301        1.1760107182
 H          4.5748009367       -2.8152552176       -1.1256601204
 H          4.1109949866       -0.4730424649       -1.8201803209
 H          2.3468234070        1.7555706856       -1.6999496345
 H          2.5191009834        1.9868456474        1.8975086399
 H          1.2277762554        0.4842620030        3.3976619378
 H         -0.2228777571       -1.2656399939        2.4337233133
 C         -0.6646541891       -1.8460323052       -0.1394802564
 H         -0.6631430065       -2.6882999028        0.5648180289
 C         -0.2499335811       -2.3525837367       -1.5057581057
 C          1.0052183519       -3.1619157385       -1.6316159277
 C         -0.3312766951       -3.8186263341       -1.8001132131
 H         -0.6339893638       -4.1284489498       -2.7892716756
 H         -0.6868596475       -4.4674262215       -1.0130951112
 H          1.6219543592       -3.0242736159       -2.5066244618
 H          1.5591092023       -3.3609013704       -0.7266789368
 H         -0.4995882031       -1.6728278386       -2.3107731085
 O         -1.7054858094        0.2998897621       -1.8267351651
