  62
        -98.94071921
 C         -2.3014422496       -1.0484441699       -0.0158658591
 C         -2.0412699595        0.2184233897       -0.5926832899
 C         -2.7156170395        1.3605571101        0.0389285194
 C         -3.4820394995        1.1762119809        1.1280459895
 C         -4.2006405894        2.2473642814        1.9025713288
 C         -5.5602165394        2.6445268111        1.3108952985
 C         -5.4952476894        3.4638430303        0.0213653280
 H         -6.4975302293        3.8576031002       -0.1583219622
 H         -4.8317412593        4.3166749903        0.1678683775
 C         -5.0492465794        2.6671648795       -1.2126125415
 H         -5.1455547694        1.5980777696       -1.0099686308
 H         -5.7102421494        2.8950724190       -2.0517447916
 C         -3.6197150294        2.9561713491       -1.6702999416
 H         -3.3959013194        2.3111770785       -2.5236618912
 H         -3.5436414593        3.9938726889       -2.0024915623
 C         -2.5522916294        2.7087222197       -0.5964489015
 H         -2.5901994694        3.4914201002        0.1609942880
 H         -1.5695391994        2.7336007394       -1.0737535315
 H         -6.1434367995        1.7372538710        1.1376266891
 H         -6.0823400594        3.2360443016        2.0664460682
 H         -3.5643571494        3.1294199514        1.9829432482
 H         -4.3648531195        1.8461114620        2.9050644591
 O         -3.6774864995       -0.0509911188        1.6788204403
 C         -3.1119551296       -1.1814036792        1.1169989410
 O         -3.4015716496       -2.2409730388        1.7086538116
 O         -1.2873303995        0.4182473490       -1.5834913700
 C         -1.7079882896       -2.3490786103       -0.5398325083
 C         -0.2910515297       -2.5101852000       -0.0426487782
 C          0.0456219503       -3.5250912995        0.8448925825
 C          1.3374453403       -3.6377325592        1.3294311626
 C          2.3177845103       -2.7404000195        0.9443573120
 C          1.9874912404       -1.7187393601        0.0641846013
 C          0.6967849604       -1.6167459303       -0.4316678087
 H          0.4435355204       -0.8108415907       -1.1049364892
 N          2.9743198604       -0.7795328904       -0.3268798192
 S          3.5063335005        0.2377425404        0.9164103701
 O          4.1061771704       -0.5721929990        1.9454356006
 O          2.4344629905        1.1150758707        1.3411847896
 C          4.7639263905        1.1694710098        0.0649069695
 C          6.0378217105        0.6422222797       -0.0224659501
 C          7.0086373205        1.3487768192       -0.7141728606
 C          6.6904044406        2.5621342488       -1.3058397613
 C          5.4069958706        3.0783802989       -1.2096596917
 C          4.4313658906        2.3763157294       -0.5194228012
 H          3.4233211706        2.7446280595       -0.4115924515
 H          5.1620976307        4.0228451287       -1.6685115923
 H          7.4473257506        3.1107392184       -1.8437875217
 H          8.0081675005        0.9521219891       -0.7897002103
 H          6.2398754805       -0.2998170800        0.4594334505
 H          2.6135385305       -0.1848643008       -1.0642254296
 H          3.3200780603       -2.8029568593        1.3345487520
 H          1.5830207402       -4.4307057988        2.0197100531
 H         -0.7193731397       -4.2148836992        1.1715157929
 H         -2.3114169397       -3.1502901500       -0.0926741278
 C         -1.7856275896       -2.4767856312       -2.0485563782
 C         -1.7189322497       -3.8406320416       -2.6642234673
 C         -3.0090199697       -3.0778472816       -2.6693080178
 H         -3.3660090596       -2.6692677721       -3.6027031181
 H         -3.7974095997       -3.4032446811       -2.0058684576
 H         -1.1878194597       -3.9592455122       -3.5960078273
 H         -1.6332916597       -4.6857443812       -1.9979815868
 H         -1.3122662096       -1.6601310116       -2.5767487887
