  62
        -98.93559895
 C         -1.7553717157       -0.7350159517        0.7285245004
 C         -2.7437844260       -1.1198793611       -0.2096345017
 C         -4.0786850896       -0.5311572514       -0.0157890388
 C         -4.3018746947        0.3081261220        1.0100292628
 C         -5.6101181867        0.9564145843        1.3789617214
 C         -6.1817198778        1.9649983327        0.3638033072
 C         -7.1844718315        1.3640882741       -0.6291010585
 H         -7.6259117906        0.4711671199       -0.1847839155
 H         -7.9994460765        2.0754287301       -0.7778572247
 C         -6.6291206281        1.0246148266       -2.0156377216
 H         -7.3590047445        0.3885438708       -2.5210876092
 H         -6.5364354871        1.9446172621       -2.5973619973
 C         -5.2673714442        0.3300222891       -2.0377842361
 H         -4.4802652692        1.0568489987       -1.8224660306
 H         -5.0847971150       -0.0294503047       -3.0523392534
 C         -5.1264542132       -0.8405161649       -1.0455264567
 H         -6.0804368861       -1.0578737284       -0.5678461962
 H         -4.7915550836       -1.7361801968       -1.5720855415
 H         -6.6946396708        2.7364768608        0.9404771344
 H         -5.3627383628        2.4505326009       -0.1664715058
 H         -6.3485874791        0.1734824821        1.5663790761
 H         -5.4222039598        1.4701510205        2.3240714392
 O         -3.3258520868        0.6457297722        1.8976415482
 C         -2.0413156741        0.1479022310        1.7740393492
 O         -1.2537457925        0.5495417230        2.6555108539
 H          1.4445765503        0.7719046082        0.9945254694
 C          1.3144901381        0.5177722846       -0.0472405391
 C          0.4377255165       -0.4956776885       -0.4106269491
 C          0.2639017006       -0.7767912060       -1.7622281232
 C          0.9514050981       -0.0551925144       -2.7204471720
 C          1.8366733592        0.9433575687       -2.3540909152
 C          2.0150861352        1.2350321825       -1.0073934276
 N          2.9040425143        2.2483840998       -0.6043883045
 S          4.0348594583        1.9019000843        0.5796146824
 O          3.3991558537        1.7964228907        1.8673901858
 O          5.0349846972        2.9378331656        0.4415119289
 C          4.7129372857        0.3283561458        0.0854120179
 C          5.6584167253        0.3118879809       -0.9216741896
 C          6.1411043511       -0.9069648930       -1.3688634540
 C          5.6650977234       -2.0835106762       -0.8102855019
 C          4.7177649753       -2.0503471605        0.2010391638
 C          4.2338010680       -0.8334696686        0.6551732979
 H          3.5009965218       -0.7632233583        1.4429464847
 H          4.3508400161       -2.9666521598        0.6354230704
 H          6.0360388602       -3.0331571998       -1.1619058968
 H          6.8821663821       -0.9365382605       -2.1512328596
 H          6.0087930758        1.2497748704       -1.3212269935
 H          3.3420861567        2.7370381770       -1.3724225226
 H          2.3765203291        1.5027499795       -3.1031662847
 H          0.8012600928       -0.2772190569       -3.7659915046
 H         -0.4392803593       -1.5396356720       -2.0553669253
 C         -0.3198759320       -1.2370040981        0.6653752715
 H          0.1264516603       -0.9644808142        1.6315850975
 C         -0.2283226516       -2.7410445250        0.5029057979
 C          1.0307032329       -3.4382306390        0.9172927459
 C         -0.2198828399       -3.6054312542        1.7260824714
 H         -0.7381001348       -4.5519345740        1.6910313431
 H         -0.2774047186       -3.1132132361        2.6866543067
 H          1.8194741247       -2.8300816341        1.3334887314
 H          1.3767071848       -4.2721128885        0.3266012078
 H         -0.7562488274       -3.1179991740       -0.3621176028
 O         -2.5514876091       -1.9210105687       -1.1605166697
