  62
        -98.93977441
 C         -2.3447921745       -1.0013463390        0.4006423040
 C         -2.6131737381        0.0044750999       -0.5600837878
 C         -3.5863247957        1.0337220394       -0.1565205478
 C         -4.1173529653        1.0011749973        1.0783164785
 C         -5.1447086598        1.9625327409        1.5999747605
 C         -6.5680947204        1.4485541967        1.3427749694
 C         -6.8083912152        0.9904379267       -0.0957140782
 H         -6.1962533525        0.1079530797       -0.2956905059
 H         -7.8528275024        0.6795660680       -0.1680063160
 C         -6.5184437915        2.0587423711       -1.1592762016
 H         -7.3322201452        2.0578240155       -1.8875048338
 H         -6.4990133451        3.0462965640       -0.6970254331
 C         -5.2218284502        1.8404949942       -1.9414014442
 H         -5.2257390581        2.5158004238       -2.8012686084
 H         -5.1953772202        0.8189614829       -2.3294235665
 C         -3.9230195445        2.0954726435       -1.1660602082
 H         -3.1006006642        2.0955028935       -1.8877483812
 H         -3.9639340621        3.0788546532       -0.6932122258
 H         -6.7558435934        0.6020989511        2.0073230346
 H         -7.2727932566        2.2425679466        1.5962100922
 H         -4.9964809327        2.0722833909        2.6755176808
 H         -5.0048897490        2.9306368199        1.1229837313
 O         -3.8046597366        0.0449066887        1.9889396835
 C         -2.9316359230       -0.9797522979        1.6702215605
 O         -2.7584478593       -1.8061311506        2.5875994305
 H         -0.0165596770       -0.0396099925       -0.7713317524
 C          0.5836533761       -0.6516421585       -0.1138964377
 C          0.0255388134       -1.7913687625        0.4487497666
 C          0.8156050688       -2.5785224684        1.2774981574
 C          2.1302695872       -2.2297580009        1.5345212062
 C          2.6816348589       -1.0919157444        0.9732885209
 C          1.9005731016       -0.2990363842        0.1424589540
 N          2.4472080716        0.8657060060       -0.4265612819
 S          3.8897696539        0.7106541603       -1.2738145020
 O          3.9058622027        1.8144947324       -2.2083164756
 O          4.0304681272       -0.6121446010       -1.8375726922
 C          5.1402200843        0.9832665022       -0.0358742436
 C          5.0877560201        2.1549568169        0.6935821384
 C          6.0582689205        2.3886447434        1.6545746157
 C          7.0610129098        1.4538757308        1.8662451672
 C          7.1019225522        0.2842640140        1.1229368274
 C          6.1330010953        0.0435998198        0.1610048406
 H          6.1208562593       -0.8538733992       -0.4366782237
 H          7.8825080573       -0.4407143431        1.2887245127
 H          7.8152110557        1.6386573085        2.6148208365
 H          6.0296973691        3.2970359753        2.2345568690
 H          4.2941379749        2.8561160253        0.4957199393
 H          1.7769032247        1.3934799800       -0.9679380524
 H          3.7044248978       -0.8151841252        1.1706883960
 H          2.7323332134       -2.8496721980        2.1810343913
 H          0.3893174628       -3.4626415765        1.7286327798
 C         -1.4024322637       -2.1679096580        0.1474681567
 H         -1.7006471526       -2.9383852519        0.8756435480
 C         -1.5732284980       -2.7710885794       -1.2417941862
 C         -0.5320091401       -2.7087459035       -2.3151823007
 C         -0.8102157180       -4.0058343089       -1.6205760061
 H         -1.3222209963       -4.7870430148       -2.1616056113
 H         -0.0679610077       -4.3630251634       -0.9225886786
 H          0.4005269542       -2.2073051620       -2.1056328477
 H         -0.8711893167       -2.5772141671       -3.3316741242
 H         -2.6039449611       -2.7190964138       -1.5782636486
 O         -2.0768795482        0.0653872586       -1.6979651639
