  62
        -98.93984493
 C          2.3435557410        0.9693466134        0.5046265979
 C          2.6134335310        0.0615889742       -0.5491261418
 C          3.5723714450       -1.0094964815       -0.2384757193
 C          4.0949507802       -1.1130035622        0.9959330578
 C          5.0505925064       -2.1734954758        1.4711081745
 C          6.5214629204       -1.8828715084        1.1431924824
 C          6.9026258018       -2.0385690922       -0.3295184582
 H          7.9929860485       -2.0199504007       -0.3820399697
 H          6.5764399420       -3.0157384762       -0.6870482465
 C          6.3459865216       -0.9405920206       -1.2465972044
 H          6.0309658230       -0.0866277582       -0.6423856987
 H          7.1362501574       -0.5867011724       -1.9125309071
 C          5.1766231520       -1.3819470068       -2.1268932195
 H          5.5152525431       -2.1462386654       -2.8299937304
 H          4.8381391838       -0.5189167797       -2.7062034316
 C          3.9734834838       -1.9322633827       -1.3500356296
 H          4.2001277754       -2.9239260311       -0.9590107050
 H          3.1285720406       -2.0117427047       -2.0387498106
 H          7.1286458371       -2.5770187954        1.7286538034
 H          6.7601725852       -0.8702664662        1.4763993715
 H          4.9433325422       -2.2225203556        2.5568119523
 H          4.7665686693       -3.1382643323        1.0497705483
 O          3.7820642904       -0.2437645370        1.9929530787
 C          2.9271929065        0.8207308363        1.7671435392
 O          2.7637785241        1.5606704123        2.7575437949
 O          2.0883691534        0.1138667992       -1.6922926256
 C          1.4113541756        2.1622899927        0.3614165556
 C         -0.0220360501        1.7664545332        0.6075646345
 C         -0.8165493120        2.4689843417        1.5053438831
 C         -2.1351732576        2.1028085616        1.7130526421
 C         -2.6862445123        1.0312723965        1.0334404906
 C         -1.9010629486        0.3237835841        0.1323144082
 C         -0.5800192215        0.6938793802       -0.0744606567
 H          0.0239853874        0.1488373613       -0.7851040806
 N         -2.4442407091       -0.7748515965       -0.5564842272
 S         -3.9090378241       -0.5621773848       -1.3491380779
 O         -3.9232496969       -1.5568510252       -2.3990478307
 O         -4.0929139548        0.8104122760       -1.7607101891
 C         -5.1215545582       -1.0002767003       -0.1211172700
 C         -5.0123954989       -2.2354643109        0.4871880169
 C         -5.9525181663       -2.5980822268        1.4383138088
 C         -6.9817021643       -1.7258480836        1.7608580033
 C         -7.0793416100       -0.4907562148        1.1386618703
 C         -6.1413305201       -0.1213964660        0.1869680260
 H         -6.1735311307        0.8306044685       -0.3185570853
 H         -7.8802155642        0.1855710196        1.3908300017
 H         -7.7118702201       -2.0109177739        2.5017424574
 H         -5.8796373769       -3.5575726681        1.9246139696
 H         -4.1992371945       -2.8839551105        0.2062494739
 H         -1.7771914919       -1.2356540318       -1.1592886873
 H         -3.7123756453        0.7420737194        1.1915435731
 H         -2.7407918557        2.6563988929        2.4141624543
 H         -0.3907311736        3.2997631884        2.0488639692
 H          1.7058974170        2.8530219469        1.1669596447
 C          1.6022635069        2.9014594317       -0.9577700341
 C          0.5764922975        2.9495882420       -2.0465704450
 C          0.8458590947        4.1697906749       -1.2214122151
 H          1.3660916830        5.0003240534       -1.6738815595
 H          0.0940031559        4.4567011476       -0.5015926222
 H          0.9300604715        2.9198856922       -3.0662379179
 H         -0.3592906841        2.4318717740       -1.9013268350
 H          2.6377181058        2.8808701371       -1.2829993608
