  62
        -98.94635874
 C          1.3974211842        1.4363103999       -0.2924716565
 C          2.6253562946        1.3955059845        0.4168630222
 C          3.6587989000        0.4953590677       -0.1074099166
 C          3.3991369353       -0.2240376557       -1.2142105221
 C          4.3343532719       -1.2264208059       -1.8249639395
 C          4.0872183966       -2.6310570529       -1.2574631987
 C          4.0303709534       -2.6803260514        0.2695795530
 H          3.8871262166       -3.7251350229        0.5544716981
 H          3.1456294532       -2.1359889301        0.6096094559
 C          5.2761255419       -2.1224973758        0.9725417705
 H          6.1096923517       -2.0822817789        0.2704031834
 H          5.5598767576       -2.8069761052        1.7747182631
 C          5.0819224954       -0.7451459850        1.6093667195
 H          5.9394987075       -0.5469078010        2.2578433054
 H          4.1894533695       -0.7569545845        2.2404702266
 C          4.9653439297        0.4312664101        0.6322706027
 H          5.8034013671        0.4127805065       -0.0674839471
 H          5.0234929400        1.3545266150        1.2162938381
 H          4.8780240506       -3.2929319549       -1.6159249061
 H          3.1331224705       -2.9988583571       -1.6436178268
 H          5.3615713221       -0.9212229159       -1.6340973332
 H          4.1634793087       -1.2454567150       -2.9027095884
 O          2.2232097278       -0.1457307845       -1.8828933827
 C          1.1863604694        0.6638554164       -1.4360334437
 O          0.1685588138        0.6032070833       -2.1521624554
 O          2.8475937691        2.0933169809        1.4440362783
 C          0.3235261732        2.3448071171        0.2722969987
 C         -0.6271049707        1.6216105197        1.2014740199
 C         -1.2674894306        2.3202426027        2.2207653373
 C         -2.1497758666        1.6784875729        3.0692221187
 C         -2.4204202321        0.3304046184        2.9140739423
 C         -1.7851187258       -0.3784591684        1.9018080397
 C         -0.8945715266        0.2699542948        1.0560433566
 H         -0.4016138383       -0.3014264206        0.2857989164
 N         -2.0218604587       -1.7511971240        1.7310591507
 S         -2.2031756097       -2.3808684366        0.1885396526
 O         -2.8480294355       -3.6590887688        0.4084772311
 O         -0.9314559517       -2.4275708797       -0.4854027106
 C         -3.3476171457       -1.2653286912       -0.6015954796
 C         -4.6787973573       -1.3837825163       -0.2468668264
 C         -5.5985000121       -0.4940388133       -0.7748536481
 C         -5.1718805512        0.5021358761       -1.6407115664
 C         -3.8346469014        0.6041903194       -1.9883287680
 C         -2.9065007965       -0.2855486027       -1.4663995474
 H         -1.8608161073       -0.2214618603       -1.7255578151
 H         -3.4980266592        1.3743598780       -2.6643710588
 H         -5.8848318103        1.2008181587       -2.0493430380
 H         -6.6401156886       -0.5765964519       -0.5094882568
 H         -4.9682111399       -2.1799139465        0.4199316230
 H         -2.7129645345       -2.1359417211        2.3589108365
 H         -3.1067627782       -0.1744874855        3.5763150420
 H         -2.6340816227        2.2314003183        3.8592655070
 H         -1.0583336646        3.3703314420        2.3536748106
 H          0.8654346000        3.0885599288        0.8743865554
 C         -0.4732577501        3.0788294447       -0.7908329105
 C         -0.9660391522        4.4702548093       -0.5355980654
 C          0.1494226886        4.2371809575       -1.5088201968
 H         -0.0431051344        4.3504900744       -2.5648304325
 H          1.1497320066        4.5230045472       -1.2167124181
 H         -1.9346058370        4.7495786152       -0.9201788167
 H         -0.7161740729        4.9323347361        0.4070159035
 H         -1.1045142220        2.4208575001       -1.3737294906
