  62
        -98.94108999
 C         -2.0877571074       -0.7870720047       -0.4376102494
 C         -3.2156632662       -1.2810372975        0.2686117162
 C         -4.4762761713       -0.5598433833        0.0658183041
 C         -4.5070197913        0.5110147294       -0.7473346563
 C         -5.7179851222        1.3432684488       -1.0708396928
 C         -6.0211432901        2.4313490065       -0.0316210664
 C         -6.5841219115        1.9241369234        1.2967480810
 H         -6.9526400902        2.7957252682        1.8414049396
 H         -7.4395031400        1.2758741069        1.1036888671
 C         -5.5649083801        1.1873035925        2.1770563742
 H         -4.5535461949        1.4183925690        1.8341959631
 H         -5.6435892820        1.5485166002        3.2049742567
 C         -5.7406615518       -0.3308506776        2.2157910460
 H         -6.6973419579       -0.5771855311        2.6816892978
 H         -4.9455430160       -0.7521315812        2.8360752632
 C         -5.6777827381       -1.0093247796        0.8411244138
 H         -5.5913701408       -2.0877625708        0.9950355377
 H         -6.5899845359       -0.8078973673        0.2798572329
 H         -5.1076550924        3.0015808899        0.1532162484
 H         -6.7522732215        3.1109614243       -0.4756086744
 H         -5.5152679981        1.8288299107       -2.0279588556
 H         -6.5879495630        0.6961264105       -1.1867489537
 O         -3.4044695034        0.9614111161       -1.3996884578
 C         -2.1651445575        0.3468853724       -1.2483743308
 O         -1.2536797314        0.9046059335       -1.8865459790
 H          1.3373152975       -0.5809119602       -1.7337698621
 C          1.3094053604       -0.1417258047       -0.7489080719
 C          0.3044512118       -0.4987246364        0.1358175327
 C          0.2750791453        0.1047032503        1.3899183564
 C          1.2174357706        1.0521012615        1.7421971465
 C          2.2112277314        1.4169236389        0.8512987816
 C          2.2505461509        0.8188442560       -0.4011268319
 N          3.2591238058        1.1836196591       -1.3063261123
 S          4.8225567144        1.3298689003       -0.7379360847
 O          4.9991500657        2.6134888444       -0.1050644910
 O          5.6691469722        1.0701655324       -1.8814493493
 C          4.9936427710        0.0323236313        0.4758732076
 C          4.8021639123       -1.2720966294        0.0647175798
 C          4.8927164021       -2.2899571066        0.9997437858
 C          5.1715890252       -1.9879821606        2.3241294212
 C          5.3671452326       -0.6743198166        2.7200664920
 C          5.2756490343        0.3481515659        1.7890219049
 H          5.4166105594        1.3832200587        2.0546534408
 H          5.5860003211       -0.4425860472        3.7499581362
 H          5.2371932997       -2.7823951862        3.0507084835
 H          4.7422798893       -3.3129829217        0.6942562770
 H          4.5926954075       -1.4738839026       -0.9734554596
 H          3.2166787795        0.7054340240       -2.1933260632
 H          2.9429543983        2.1685248465        1.0996965113
 H          1.1773169797        1.5154726344        2.7162908246
 H         -0.5075120375       -0.1717274088        2.0832397234
 C         -0.7648569721       -1.5002261630       -0.2159885325
 H         -0.9459117696       -2.1286555864        0.6714053310
 C         -0.3575126403       -2.4477697720       -1.3340551025
 C         -1.3921613361       -3.2237724975       -2.0913726786
 C         -0.5988548545       -2.1585988550       -2.7842604729
 H          0.1527498135       -2.4653384461       -3.4977546615
 H         -1.0889572450       -1.2328574009       -3.0413328169
 H         -1.1902490683       -4.2568117854       -2.3312438956
 H         -2.4292333766       -3.0215146970       -1.8663175662
 H          0.5594867513       -2.9774511992       -1.0932182537
 O         -3.1690942080       -2.2795414399        1.0347108052
