  62
        -98.93890181
 C          1.8492174779        1.0859252699       -0.1880665123
 C          2.9840729266        1.2063556916        0.6554708440
 C          4.2336845394        0.5801698546        0.1932336310
 C          4.2413378437       -0.0551208802       -0.9910217429
 C          5.3816125867       -0.8002010613       -1.6277177312
 C          5.3201631877       -2.2955581368       -1.2725831445
 C          6.0194846459       -2.6772203739        0.0314980839
 H          5.7916934806       -3.7277463337        0.2266703515
 H          7.1000498431       -2.5963823058       -0.1041329903
 C          5.6169585829       -1.8513544908        1.2561912200
 H          4.5345432390       -1.7092123561        1.2647251818
 H          5.8726835078       -2.4281537768        2.1471954612
 C          6.3246089641       -0.4897804579        1.3254595249
 H          7.1402176757       -0.4748775562        0.6027617322
 H          6.7816514285       -0.3700327495        2.3099364717
 C          5.4186106070        0.7306595258        1.1077366143
 H          4.9905070331        1.0411560387        2.0659987898
 H          6.0284003216        1.5685285059        0.7533242182
 H          5.7790348880       -2.8673141291       -2.0818436047
 H          4.2673650797       -2.5860800768       -1.2241405788
 H          6.3347014043       -0.3664916486       -1.3401347534
 H          5.2581837889       -0.6940967243       -2.7075795984
 O          3.1336213392       -0.1451594383       -1.7740806406
 C          1.9182309054        0.4038606387       -1.4022349946
 O          1.0132203375        0.2091312034       -2.2397903345
 O          2.9529717237        1.8184845679        1.7565628291
 C          0.5672964315        1.7383736024        0.3023752570
 C         -0.3761750583        0.7263504993        0.9069085723
 C         -0.7255984177        0.7884764367        2.2505291463
 C         -1.6140058268       -0.1245513961        2.7927196602
 C         -2.1720654599       -1.1160122665        2.0062374573
 C         -1.8230052865       -1.1892298815        0.6638999472
 C         -0.9383076652       -0.2699360853        0.1210025435
 H         -0.6677163536       -0.3369010535       -0.9222900905
 N         -2.4008710193       -2.1867221579       -0.1503390970
 S         -4.0752317000       -2.1370091174       -0.2416517881
 O         -4.6313979397       -2.7315108033        0.9479285955
 O         -4.4217009283       -2.7764152394       -1.4909932772
 C         -4.4572173052       -0.3956072750       -0.2896347399
 C         -4.9652568109        0.2290520932        0.8309366858
 C         -5.1732568625        1.5985344353        0.7964617250
 C         -4.8665324533        2.3154453366       -0.3493671410
 C         -4.3589204954        1.6723414761       -1.4678772130
 C         -4.1470004262        0.3039837609       -1.4388115851
 H         -3.7552192444       -0.2289702655       -2.2907806167
 H         -4.1221663490        2.2300836046       -2.3599987773
 H         -5.0245291989        3.3822434206       -0.3718864327
 H         -5.5682717744        2.1021814018        1.6638089721
 H         -5.1892466729       -0.3661861193        1.7007098631
 H         -2.0052647543       -2.2047008730       -1.0800862901
 H         -2.8713785364       -1.8325869289        2.4059741535
 H         -1.8748349735       -0.0634628666        3.8381373300
 H         -0.2863367624        1.5536263316        2.8736605227
 H          0.8844303998        2.4184475544        1.1039258842
 C         -0.1428160162        2.5507119642       -0.7639875183
 C         -1.1255658557        3.5990481481       -0.3403855081
 C          0.1932718814        4.0011609922       -0.9279461778
 H          0.2132218759        4.4148099004       -1.9250656596
 H          0.9410060651        4.4184932460       -0.2692801010
 H         -2.0165791081        3.7361303263       -0.9325183209
 H         -1.2740105920        3.7446204694        0.7185586984
 H         -0.3609816835        1.9870558634       -1.6613618613
