  62
        -98.94575880
 C          1.9979733267        1.5136912100       -0.0629702354
 C          1.7049476308        0.2785197047       -0.6910723583
 C          2.8219250708       -0.6718467627       -0.7643643587
 C          4.0371828255       -0.3148296072       -0.3108390529
 C          5.2791633891       -1.1636433236       -0.3481150648
 C          5.4079861370       -2.1316674147        0.8360119012
 C          4.4458820591       -3.3199951105        0.8110409772
 H          4.5205236291       -3.8255071983       -0.1521909531
 H          4.7856048365       -4.0226736712        1.5746165910
 C          2.9816172814       -2.9538610729        1.0921025884
 H          2.9356662164       -1.9639051416        1.5517880887
 H          2.5624871715       -3.6589635350        1.8133456582
 C          2.0739890460       -2.9709667557       -0.1381136573
 H          2.0025052944       -3.9909066215       -0.5220377761
 H          1.0758969456       -2.6499018698        0.1702024660
 C          2.5325936162       -2.0499868120       -1.2764431276
 H          3.4080892555       -2.4675133087       -1.7730099643
 H          1.7191234761       -1.9681355526       -2.0009553158
 H          5.2695506345       -1.5699174531        1.7628612627
 H          6.4300588839       -2.5176755486        0.8320698737
 H          5.3130969284       -1.7236591072       -1.2829431793
 H          6.1273093616       -0.4759079084       -0.3236855652
 O          4.2882313858        0.9060285315        0.2348587892
 C          3.2706631334        1.8310609347        0.4087085440
 O          3.6209541048        2.8823061361        0.9834433658
 H         -1.7612900752        2.3985905846       -0.6409787224
 C         -1.5580343106        1.8789475590        0.2821254003
 C         -0.2770400767        1.8744758750        0.8083827569
 C         -0.0530393522        1.1971195938        2.0045018922
 C         -1.0787344821        0.5280285931        2.6431869871
 C         -2.3531875804        0.5173405337        2.1030281496
 C         -2.5889223781        1.1973406950        0.9169317687
 N         -3.8798837685        1.1866257424        0.3562324711
 S         -4.6241255851       -0.3013176027        0.1603658529
 O         -5.6353184678       -0.0819735401       -0.8500816304
 O         -5.1017444260       -0.7683595558        1.4380579535
 C         -3.3565676453       -1.3921152615       -0.4572661889
 C         -2.9074499259       -1.1994356964       -1.7482407038
 C         -1.9054733219       -2.0185120559       -2.2392784592
 C         -1.3699242921       -3.0098123760       -1.4330374286
 C         -1.8287423020       -3.1885069350       -0.1377015356
 C         -2.8307528906       -2.3712600226        0.3596530884
 H         -3.2169909747       -2.4793344502        1.3601172414
 H         -1.4061843564       -3.9594728401        0.4871001760
 H         -0.5870232071       -3.6450041715       -1.8164497956
 H         -1.5395694098       -1.8765119676       -3.2432493183
 H         -3.3532469725       -0.4247180832       -2.3515025126
 H         -3.9508606521        1.7244030018       -0.4957806571
 H         -3.1641461429       -0.0087039614        2.5797904926
 H         -0.8855042692        0.0037538561        3.5670304005
 H          0.9459960979        1.1924710378        2.4201285630
 C          0.8922036918        2.5375510280        0.1228435375
 H          1.2955193658        3.3123714241        0.7903411341
 C          0.5465299017        3.1724440051       -1.2079798016
 C         -0.0405906317        4.5504300648       -1.2582573650
 C          1.3738643178        4.3212193764       -1.6973602320
 H          1.6040814207        4.3795569335       -2.7506704948
 H          2.1743286424        4.6627791798       -1.0573304554
 H         -0.7798364097        4.7717809033       -2.0135938740
 H         -0.2037737354        5.0590935167       -0.3201510634
 H          0.2191052199        2.4463905511       -1.9436890029
 O          0.5776681104       -0.0155279553       -1.1635556064
