  62
        -98.93548848
 C         -2.1896064055       -1.3749970321        0.4942602296
 C         -1.8518195366       -0.1300598012        1.0913536587
 C         -2.8954853243        0.8975041884        1.1053078258
 C         -4.1047609153        0.6186834682        0.5864967073
 C         -5.2824320732        1.5534573418        0.5321899104
 C         -5.2598440046        2.5128510323       -0.6659665665
 C         -4.2194864338        3.6311284612       -0.5868112223
 H         -4.4601890171        4.3475928968       -1.3746838102
 H         -4.3185037280        4.1509284036        0.3666083371
 C         -2.7694323776        3.1620647233       -0.7726049576
 H         -2.7636136098        2.1657331695       -1.2204063724
 H         -2.2583352285        3.8293651220       -1.4699449301
 C         -1.9434630827        3.1293322370        0.5137103217
 H         -1.8161062450        4.1443182179        0.8967305315
 H         -0.9550436597        2.7273309987        0.2771331704
 C         -2.5411665906        2.2574868613        1.6251128577
 H         -3.4158677080        2.7415345166        2.0589798245
 H         -1.7869747932        2.1307955577        2.4060949694
 H         -6.2494125108        2.9705621105       -0.7341739596
 H         -5.1002067536        1.9301529096       -1.5760986978
 H         -6.1740296721        0.9274424065        0.4556014459
 H         -5.3383607579        2.1260184807        1.4584620401
 O         -4.4009073308       -0.5912283784        0.0497259377
 C         -3.4547011039       -1.6110521073       -0.0439586897
 O         -3.8932527355       -2.6297418134       -0.6066951579
 O         -0.7173087246        0.1041245171        1.5886782620
 C         -1.0583846362       -2.3922834994        0.4727696230
 C          0.0926597833       -1.8283262422       -0.3232491786
 C         -0.1262070626       -1.1575096828       -1.5215517242
 C          0.9286018618       -0.6117619507       -2.2302145348
 C          2.2232956124       -0.7228677086       -1.7542664344
 C          2.4533849216       -1.3989327901       -0.5641871466
 C          1.3946690260       -1.9520498095        0.1397438117
 H          1.5858771738       -2.4447856647        1.0839367134
 N          3.7881099954       -1.4643760725       -0.0732388143
 S          4.1369097081       -0.2052445113        1.0013940520
 O          5.5636967217       -0.2751224051        1.2317375270
 O          3.3190622910       -0.3065727222        2.1912028844
 C          3.7308078201        1.2518330051        0.0715873781
 C          2.4473902267        1.7594128957        0.1328076942
 C          2.1433360514        2.8787459522       -0.6265213529
 C          3.1143373582        3.4623595261       -1.4260441088
 C          4.3972594881        2.9382216396       -1.4739331783
 C          4.7106562715        1.8194679140       -0.7193181327
 H          5.6929372143        1.3761795810       -0.7184782745
 H          5.1499133405        3.3953441393       -2.0958132515
 H          2.8668575468        4.3322085459       -2.0138891958
 H          1.1457604867        3.2876210591       -0.5922246915
 H          1.7125198989        1.2779105742        0.7613531232
 H          3.9746133492       -2.3301537832        0.4176411241
 H          3.0541350618       -0.2933611704       -2.2897982263
 H          0.7403105246       -0.0885998292       -3.1550769739
 H         -1.1412237924       -1.0532167244       -1.8809072488
 H         -0.7097011616       -2.4775769941        1.5173545038
 C         -1.4444736085       -3.7887159322        0.0159111883
 C         -1.2442276808       -4.2687316774       -1.3867864288
 C         -0.3902960024       -4.8132170197       -0.2829362199
 H         -0.5546971974       -5.8276340743        0.0472313881
 H          0.6425633955       -4.4999076810       -0.2510216466
 H         -2.0115933259       -4.8952617462       -1.8140939564
 H         -0.7863148698       -3.5951979884       -2.0946667667
 H         -2.3347712515       -4.1463156743        0.5193422714
