  62
        -98.93962642
 C         -2.6188295525       -0.6892058938        0.6354002015
 C         -2.9910590449       -0.1107775206       -0.6024435688
 C         -3.4416476284        1.2876199735       -0.5439446011
 C         -3.4763851127        1.9215651465        0.6423474074
 C         -3.8554668591        3.3607870248        0.8353748594
 C         -2.6230783801        4.2733840580        0.7619484746
 C         -1.7338587846        4.0149715943       -0.4546762848
 H         -0.9151344594        4.7367575508       -0.4182178836
 H         -1.2897303823        3.0203272377       -0.3690520047
 C         -2.4561317110        4.1295082602       -1.8043706459
 H         -1.8294598662        4.7044236063       -2.4892735849
 H         -3.3893706754        4.6798539046       -1.6797725373
 C         -2.7455828391        2.7899547196       -2.4844722777
 H         -3.0531544197        2.9908833760       -3.5141367377
 H         -1.8303518004        2.1935624284       -2.5277189548
 C         -3.8445771535        1.9373017924       -1.8377161194
 H         -4.7465587855        2.5379021713       -1.7038914712
 H         -4.0749320371        1.1175156257       -2.5244207800
 H         -2.0246163880        4.1193036344        1.6628823523
 H         -2.9622751794        5.3107033244        0.7528842951
 H         -4.5781148993        3.6455915937        0.0733373136
 H         -4.3168784991        3.4662457396        1.8186703417
 O         -3.1126215031        1.3307483436        1.8100662810
 C         -2.6617232203        0.0211225200        1.8341636988
 O         -2.3269258739       -0.3876119326        2.9656206914
 H          0.0193609621       -0.5575299137        0.7919312430
 C          0.1541448926       -1.3297108036        0.0430614657
 C         -0.8681979760       -2.2490326254       -0.1621200956
 C         -0.6793819196       -3.2465115658       -1.1082520084
 C          0.4937695571       -3.3010883272       -1.8420017717
 C          1.4987979195       -2.3719131416       -1.6501070238
 C          1.3270048391       -1.3774423297       -0.6948111967
 N          2.3362841803       -0.4110309081       -0.4945993283
 S          3.9050791794       -0.9951742724       -0.2499434500
 O          4.4313994594       -1.4372539968       -1.5160261370
 O          3.9104386597       -1.9762558238        0.8134358071
 C          4.7446637948        0.4884714410        0.2660656867
 C          5.1297129185        1.3991763160       -0.6994135392
 C          5.7671179633        2.5641469875       -0.3036555930
 C          6.0074872939        2.7974829671        1.0424580127
 C          5.6156975661        1.8735564471        1.9994451207
 C          4.9758529376        0.7069681591        1.6106170161
 H          4.6612102429       -0.0426201385        2.3192718505
 H          5.8060390764        2.0560575631        3.0448743647
 H          6.5058634241        3.7039079926        1.3480101620
 H          6.0751354048        3.2844276394       -1.0442733170
 H          4.9309053062        1.1708119168       -1.7333813484
 H          2.0937853782        0.2209466003        0.2575653921
 H          2.4153675539       -2.4091486350       -2.2156645650
 H          0.6259851038       -4.0788064353       -2.5791357293
 H         -1.4510643743       -3.9792883665       -1.2769948062
 C         -2.1159135811       -2.1209831437        0.6797461902
 H         -1.8367918668       -2.3137483928        1.7264035538
 C         -3.2189222051       -3.0806158307        0.2864986317
 C         -3.2232909235       -4.4817582741        0.8172825990
 C         -4.2247513237       -3.4867784992        1.3197402562
 H         -5.2564838097       -3.5949781073        1.0208057582
 H         -4.0987237706       -3.0903348782        2.3170267604
 H         -2.4187951391       -4.7689474896        1.4776109281
 H         -3.5707532198       -5.2762117258        0.1741807554
 H         -3.5779908845       -2.9118045792       -0.7219692907
 O         -2.9489398801       -0.7257550645       -1.6991069212
