  62
        -98.94079157
 C         -2.5818741249       -1.3233303549        0.2187858011
 C         -2.4257036953       -0.2159523448       -0.6528630266
 C         -3.5746258683        0.7027580784       -0.7343333226
 C         -4.6826084509        0.4507330097       -0.0158968743
 C         -5.9010660248        1.3255385128        0.0259522619
 C         -5.8082975688        2.3510801655        1.1642992407
 C         -4.4836023009        3.1132738866        1.2023877996
 H         -4.5444180226        3.8307669063        2.0234827245
 H         -3.6763141125        2.4176093661        1.4434556923
 C         -4.1395341170        3.8535353307       -0.0976251369
 H         -5.0371230950        3.9720576085       -0.7057768154
 H         -3.7832140416        4.8548442265        0.1532570294
 C         -3.0446183982        3.1904008932       -0.9358392831
 H         -2.1722431992        2.9864044221       -0.3087965888
 H         -2.7303756648        3.8993373960       -1.7068633671
 C         -3.4417606856        1.8900827369       -1.6461184742
 H         -4.3617650093        2.0466566666       -2.2133876334
 H         -2.6416466482        1.6413898849       -2.3499036295
 H         -6.6334961314        3.0578048172        1.0603335580
 H         -5.9278621246        1.8254590101        2.1144210895
 H         -6.0092141347        1.8354222658       -0.9293010909
 H         -6.7738223479        0.6913591233        0.1905300023
 O         -4.7981368562       -0.6229878979        0.8057571631
 C         -3.7513607893       -1.5150271901        0.9620900537
 O         -3.9805091468       -2.4280054472        1.7798834397
 H          0.6338984922       -1.8797904888       -1.2284357861
 C          0.7975468904       -1.4780065514       -0.2407518819
 C         -0.1775342078       -1.6315544370        0.7305962970
 C          0.0349512611       -1.0688085810        1.9854424598
 C          1.2004159988       -0.3783361961        2.2597233729
 C          2.1729964105       -0.2262827279        1.2866465377
 C          1.9592798904       -0.7638396303        0.0248771988
 N          2.9325138964       -0.6139312698       -0.9746381415
 S          3.7654765846        0.8319633240       -1.1235312711
 O          2.9841266059        1.9671147378       -0.6917247337
 O          4.2303087945        0.8542046919       -2.4937116202
 C          5.1684737031        0.6102894061       -0.0466955146
 C          5.9219889557       -0.5388636228       -0.1861513072
 C          7.0235960670       -0.7212948083        0.6341816831
 C          7.3542379110        0.2443282069        1.5732789514
 C          6.5904182637        1.3943224016        1.6988219266
 C          5.4864465443        1.5821210146        0.8815063198
 H          4.8610081246        2.4584369476        0.9477259604
 H          6.8489019977        2.1445137326        2.4288657087
 H          8.2122189338        0.0999953549        2.2107610590
 H          7.6198530180       -1.6145020052        0.5393307620
 H          5.6338553778       -1.2634663843       -0.9291654850
 H          2.6424120672       -0.9604783149       -1.8774543041
 H          3.0769229380        0.3241798373        1.4896792295
 H          1.3538813091        0.0497417782        3.2388320954
 H         -0.7318327341       -1.1726467345        2.7413199081
 C         -1.4776930677       -2.3427740066        0.4526406827
 H         -1.7754727036       -2.8725019851        1.3715490843
 C         -1.3532204646       -3.4021396240       -0.6328131146
 C         -2.5803486744       -3.9963728422       -1.2554940487
 C         -1.6618718689       -3.1433553760       -2.0754631448
 H         -1.0473141099       -3.6263094470       -2.8217372656
 H         -1.9880545067       -2.1543412113       -2.3556874473
 H         -2.6020969819       -5.0595341848       -1.4412204933
 H         -3.5345915323       -3.5838640347       -0.9611126319
 H         -0.5365452072       -4.0880319326       -0.4280625529
 O         -1.3973747381        0.0084221377       -1.3430761178
