  62
        -98.93661632
 C         -1.9240222818       -1.2572886146       -0.0835801064
 C         -3.0262195635       -1.1304950963        0.7992213053
 C         -4.2368784680       -0.4710473645        0.2805487069
 C         -4.2452476233       -0.0177056756       -0.9864776648
 C         -5.3326935365        0.6455826977       -1.8058333616
 C         -6.6030927916        1.1658960963       -1.1393214891
 C         -6.3953978608        2.3768031370       -0.2297162362
 H         -6.1532154323        3.2410374710       -0.8535730917
 H         -7.3378967259        2.5888103843        0.2796151078
 C         -5.2876026030        2.2381153935        0.8116757586
 H         -4.3260980156        2.1074703696        0.3105636430
 H         -5.2331231785        3.1773410852        1.3689648827
 C         -5.4773918092        1.1094717129        1.8229316059
 H         -4.7016492195        1.2175995404        2.5859838801
 H         -6.4465509523        1.2155349974        2.3142952694
 C         -5.3704261862       -0.3148179696        1.2528887596
 H         -6.3090624360       -0.6320018957        0.8048372009
 H         -5.1566008884       -0.9946596068        2.0828258705
 H         -7.2756244894        1.4712997466       -1.9455559922
 H         -7.1009266086        0.3640413429       -0.6021127597
 H         -4.8457770293        1.4679327249       -2.3399640242
 H         -5.6170477047       -0.0888447932       -2.5676032095
 O         -3.1593800023       -0.1561430195       -1.7999663608
 C         -1.9795253988       -0.7575894338       -1.3836258827
 O         -1.0944923009       -0.7660579909       -2.2600214870
 O         -3.0055802053       -1.5704101122        1.9799754081
 C         -0.6955222667       -1.9670201475        0.4581022579
 C          0.3297715589       -0.9957520402        0.9843758611
 C          0.8985386495       -1.1690375241        2.2407749629
 C          1.8526363343       -0.2832616121        2.7117188735
 C          2.2615496602        0.7886531089        1.9392844453
 C          1.7009071994        0.9688946264        0.6809084598
 C          0.7443928281        0.0801825463        0.2112179267
 H          0.3171645590        0.2227904475       -0.7704626567
 N          2.1181854121        2.0470967208       -0.1202640005
 S          3.7690981933        2.2767081764       -0.2890315345
 O          4.2739535866        2.9793704448        0.8645045267
 O          3.9366068817        2.9459313655       -1.5593839793
 C          4.4590130492        0.6328339573       -0.3447244498
 C          5.2680126789        0.1876517879        0.6808268851
 C          5.7487128704       -1.1113243291        0.6390352287
 C          5.4116304720       -1.9387833276       -0.4206556883
 C          4.6032924857       -1.4746608891       -1.4470875656
 C          4.1187082464       -0.1772139666       -1.4100995635
 H          3.4877626012        0.2140817012       -2.1929786891
 H          4.3402277023       -2.1195703847       -2.2699713394
 H          5.7791440318       -2.9521864460       -0.4494799880
 H          6.3797418141       -1.4741942973        1.4341107689
 H          5.5051651986        0.8643210874        1.4852854794
 H          1.6553055221        2.0807950258       -1.0170004521
 H          2.9972982971        1.4932006845        2.2914725122
 H          2.2816496086       -0.4273114461        3.6912963839
 H          0.5775293201       -1.9973115720        2.8550518446
 H         -1.0697153674       -2.5454206970        1.3174070995
 C         -0.1055883612       -2.9636660029       -0.5317074343
 C          1.1796935759       -2.7476863243       -1.2662831681
 C          1.1113395515       -3.7618678207       -0.1669652359
 H          1.1368264455       -4.8099754875       -0.4229167884
 H          1.6028944401       -3.5184627303        0.7626702796
 H          1.2296258902       -3.0857265456       -2.2899645048
 H          1.7260717311       -1.8362778534       -1.0829556335
 H         -0.8843452188       -3.4871264310       -1.0780968146
