  62
        -98.93989926
 C         -1.5264948079       -1.1090431536       -0.0238242980
 C         -2.5933085618       -0.7906103951        0.8534115569
 C         -3.3059073872        0.4709714771        0.5951584238
 C         -2.9010300195        1.2601028062       -0.4142648181
 C         -3.4372621832        2.6084083494       -0.8258956222
 C         -4.9615715015        2.7871324943       -0.8484871754
 C         -5.7583299878        1.5296912397       -1.2256493488
 H         -6.4627722092        1.7813262262       -2.0207448006
 H         -5.0872520833        0.7630307088       -1.6168353173
 C         -6.5593502994        0.9566892694       -0.0538841610
 H         -7.0306329345        1.7817837537        0.4846954903
 H         -7.3595493846        0.3268920496       -0.4502115570
 C         -5.7611520210        0.1059667757        0.9334499439
 H         -6.4173697800       -0.1405592522        1.7716149175
 H         -5.4763332320       -0.8386594273        0.4620816459
 C         -4.4816986908        0.7567665748        1.4840612382
 H         -4.6189712963        1.8237707429        1.6409892682
 H         -4.2540534017        0.2892468561        2.4457608587
 H         -5.3016883446        3.1434167874        0.1228332546
 H         -5.1750508773        3.5814170434       -1.5658284788
 H         -3.0004242864        3.3647232895       -0.1674235031
 H         -3.0356899255        2.7812250556       -1.8274158207
 O         -1.8578621335        0.9237157443       -1.2232929466
 C         -1.1548659434       -0.2611430648       -1.0654972367
 O         -0.2496828922       -0.4220443651       -1.9065104805
 O         -2.9313229214       -1.5263129980        1.8174579084
 C         -0.7452527498       -2.3874304065        0.2366473068
 C          0.6295448697       -1.9769372585        0.7001491726
 C          0.8320260348       -1.6388147887        2.0355247784
 C          2.0523550368       -1.1507625335        2.4643853981
 C          3.0878820023       -0.9604339425        1.5654110888
 C          2.8885388420       -1.2819275940        0.2297271808
 C          1.6780387502       -1.8142930835       -0.1915826978
 H          1.5406856228       -2.0530312872       -1.2338367925
 N          3.9092951441       -1.0250961378       -0.7045607025
 S          4.6175996177        0.4900497520       -0.6202491661
 O          5.0022348265        0.8141736636       -1.9766623979
 O          5.6974268378        0.4550630903        0.3366047677
 C          3.3549614735        1.6139617590       -0.0387147181
 C          2.1302236769        1.6454373489       -0.6754100431
 C          1.1600093123        2.5211067805       -0.2147261255
 C          1.4273414812        3.3496784213        0.8636413046
 C          2.6647772223        3.3112169315        1.4873850512
 C          3.6374714053        2.4347712715        1.0349793552
 H          4.6092881085        2.3647749820        1.4962304049
 H          2.8716756470        3.9567786844        2.3256817476
 H          0.6661859149        4.0265818136        1.2186605003
 H          0.1966947188        2.5362596981       -0.7006236532
 H          1.9198741335        0.9879257393       -1.5044954847
 H          3.6370156383       -1.2333186555       -1.6548790791
 H          4.0399725338       -0.5598923836        1.8745424524
 H          2.1966390819       -0.9013108882        3.5043833848
 H          0.0119909643       -1.7485194323        2.7310334601
 H         -1.2604437102       -2.8806091556        1.0712171629
 C         -0.7435246837       -3.3193587665       -0.9562952705
 C         -0.2974890583       -4.7385444079       -0.7741409768
 C         -1.7439923899       -4.4327882341       -1.0177092107
 H         -2.1716181378       -4.6882252403       -1.9757871805
 H         -2.4336947638       -4.5319368202       -0.1923763113
 H          0.2698033611       -5.2076561444       -1.5634659314
 H         -0.0033127079       -5.0429464290        0.2188990725
 H         -0.4991462886       -2.8275530813       -1.8899372469
