  62
        -98.94570901
 C         -0.9932913147       -1.1401834076       -0.2405361034
 C         -2.0518603378       -1.2145815214        0.7032213195
 C         -2.9349417672       -0.0475592197        0.7853950888
 C         -2.7032192858        1.0164574697       -0.0039654901
 C         -3.5081112232        2.2874884548       -0.0356404540
 C         -4.7670568560        2.2077071678       -0.9105613306
 C         -5.9096624550        1.3694938348       -0.3359000612
 H         -6.1227506993        1.6960358356        0.6823943487
 H         -6.7960748306        1.5808703891       -0.9374014765
 C         -5.6541190212       -0.1440575361       -0.3502731787
 H         -4.8352095225       -0.3689246066       -1.0375758363
 H         -6.5395515270       -0.6595479170       -0.7294026511
 C         -5.3303403774       -0.7451206003        1.0174886626
 H         -5.1304495660       -1.8113742698        0.8844388707
 H         -6.1959601650       -0.6449659291        1.6761470731
 C         -4.1132638406       -0.1174678924        1.7094322354
 H         -4.3639292966        0.8751684398        2.0822339313
 H         -3.8358334595       -0.7511662178        2.5551059676
 H         -5.1308717959        3.2281494386       -1.0516282327
 H         -4.4867905346        1.8167762328       -1.8914152284
 H         -3.7881951218        2.5698857315        0.9794434326
 H         -2.8552478629        3.0584193163       -0.4484002921
 O         -1.6691464720        1.0591975408       -0.8820711437
 C         -0.7939047576       -0.0081853133       -1.0313177311
 O          0.0860081807        0.1942444999       -1.8905492067
 O         -2.2514189917       -2.2170838568        1.4395672186
 C         -0.0827572410       -2.3538045075       -0.3342011912
 C          1.1633772924       -2.1336279657        0.4889718570
 C          1.3547979110       -2.8412059095        1.6707737528
 C          2.4822592551       -2.6307269340        2.4438403351
 C          3.4322100976       -1.7029504030        2.0587647202
 C          3.2465777119       -0.9848693251        0.8812033782
 C          2.1217320608       -1.2072508025        0.0995821266
 H          1.9901595400       -0.6425833614       -0.8098481668
 N          4.1935118712       -0.0347029070        0.4823304372
 S          3.8211351294        1.2458783742       -0.5134705006
 O          3.7126690336        0.8030116043       -1.8799376255
 O          4.8861033642        2.1967590001       -0.2571092384
 C          2.2868004500        1.9583322983        0.0556165840
 C          1.9364323698        1.8920987259        1.3890670436
 C          0.7766293997        2.5234973431        1.8088341221
 C          0.0012430137        3.2238593533        0.8988790849
 C          0.3708818806        3.2878244782       -0.4348077246
 C          1.5211150320        2.6455796885       -0.8631974568
 H          1.8286465554        2.6500523763       -1.8963739937
 H         -0.2351868471        3.8240262368       -1.1476131429
 H         -0.8980637897        3.7180811928        1.2317761133
 H          0.4818156833        2.4666986140        2.8445532734
 H          2.5529876567        1.3485900383        2.0864098831
 H          4.9044431217        0.1944300736        1.1602786579
 H          4.3114053984       -1.5309444212        2.6605699803
 H          2.6199415599       -3.1886001039        3.3574264987
 H          0.6027907916       -3.5490407963        1.9867644750
 H         -0.6494548809       -3.1702006532        0.1346913421
 C          0.2531367992       -2.7635665288       -1.7534323669
 C          0.6636908106       -4.1800869146       -2.0184559753
 C         -0.6717580340       -3.6862443727       -2.4865133769
 H         -0.8251282890       -3.5280288050       -3.5435201495
 H         -1.5533509394       -4.0293817477       -1.9645390116
 H          1.4321011489       -4.3632535666       -2.7538115106
 H          0.6856870090       -4.8600666672       -1.1801882554
 H          0.7349660565       -1.9847072683       -2.3300843097
