  62
        -98.93642015
 C         -1.1954656198       -1.2241873794        0.5421611203
 C         -2.2719499097       -1.2365270999       -0.3751349697
 C         -3.3031440799       -0.1913731299       -0.2004962501
 C         -3.1668864400        0.7113840405        0.7859102295
 C         -4.0721915301        1.8619275205        1.1463620990
 C         -5.5773797301        1.5544520204        1.1920667291
 C         -6.3661359801        2.2152610999        0.0605346189
 H         -7.4077973301        2.3163724899        0.3734376588
 H         -5.9741537002        3.2224543998       -0.0951040415
 C         -6.3537165500        1.4570969893       -1.2657146908
 H         -6.8264236201        2.0959208890       -2.0155254811
 H         -6.9675061399        0.5583726993       -1.1729385805
 C         -4.9700459700        1.0455592593       -1.7736714906
 H         -4.2477549601        1.8434096294       -1.6073480110
 H         -5.0426360799        0.9023213688       -2.8538816206
 C         -4.4555028098       -0.2673639904       -1.1653667401
 H         -5.2791727398       -0.8015025803       -0.6821571399
 H         -4.1012480998       -0.9257008807       -1.9645612099
 H         -5.7359633999        0.4769660304        1.1844210496
 H         -5.9670353601        1.9305602507        2.1394714990
 H         -3.7319983401        2.1947279510        2.1296128289
 H         -3.8843756102        2.6861410403        0.4542503187
 O         -2.0957427100        0.7029188909        1.6311670695
 C         -1.1086277899       -0.2587144790        1.5475564799
 O         -0.2176146499       -0.1515140386        2.4150709699
 H          2.4120756102       -1.2238335289        0.8900385803
 C          2.1760746703       -1.3208780193       -0.1589276296
 C          0.9490196403       -1.8378705296       -0.5497993894
 C          0.6746579203       -1.9569233402       -1.9085348394
 C          1.6128655703       -1.5676859404       -2.8465321995
 C          2.8306398603       -1.0402708202       -2.4534407497
 C          3.1124324302       -0.9121111896       -1.0988082998
 N          4.3416105102       -0.3852377693       -0.6684580100
 S          4.3780426800        0.7264116412        0.5824767896
 O          5.6776330700        1.3514296113        0.4627054594
 O          4.1053616901        0.0715566917        1.8352806898
 C          3.1045576699        1.9053202709        0.1728000291
 C          1.8539604899        1.8171416810        0.7478216191
 C          0.8723284998        2.7118543507        0.3492666888
 C          1.1538565897        3.6728391404       -0.6081651616
 C          2.4192649097        3.7528304803       -1.1710421516
 C          3.4026856898        2.8593510806       -0.7821287813
 H          4.4014573198        2.8947586405       -1.1863555613
 H          2.6382075997        4.5056540700       -1.9110259419
 H          0.3841716597        4.3643174102       -0.9130000719
 H         -0.1077788302        2.6402942008        0.7956034288
 H          1.6471857600        1.0666473413        1.4947712094
 H          4.9556623101       -0.1003060895       -1.4180642301
 H          3.5595181402       -0.7323961804       -3.1875677098
 H          1.3902088003       -1.6676625209       -3.8980077995
 H         -0.2855187096       -2.3371516104       -2.2195970593
 C         -0.0570323997       -2.2329906393        0.5051265207
 H          0.4409836603       -2.1505469989        1.4811434907
 C         -0.5249535395       -3.6641357094        0.3322775413
 C          0.3957341706       -4.7755127192        0.7331473517
 C         -0.8279050794       -4.4842455790        1.5481931916
 H         -1.6534362793       -5.1789858891        1.5088158219
 H         -0.6980760895       -4.0159919986        2.5135984614
 H          1.3559803406       -4.5041293589        1.1464819416
 H          0.4127928507       -5.6726964394        0.1337766321
 H         -1.1524408895       -3.8156295798       -0.5353036187
 O         -2.3954786696       -2.0734585503       -1.3073985494
