  62
        -98.94618226
 C          1.4245519229        0.8694100064       -0.0457334530
 C          2.5010414955        0.7998034146        0.8751214091
 C          3.4188742727       -0.3326318633        0.7232144321
 C          3.1909143087       -1.2477876858       -0.2360768463
 C          4.0189906933       -2.4755831895       -0.5033886132
 C          5.2535289200       -2.2193509091       -1.3789474990
 C          6.3929088824       -1.4641068075       -0.6931011980
 H          6.6378301151       -1.9567401028        0.2483827833
 H          7.2673345486       -1.5470188649       -1.3415584504
 C          6.1056846282        0.0223550845       -0.4395188650
 H          6.9697787880        0.6173052170       -0.7436177920
 H          5.2633776589        0.3405535978       -1.0580823842
 C          5.8065251706        0.3698366672        1.0187337998
 H          6.6900600715        0.1758190060        1.6308324406
 H          5.5830608751        1.4379717104        1.0782482677
 C          4.6194853391       -0.3951411735        1.6186829625
 H          4.3503969649        0.0762719956        2.5672306417
 H          4.8968861584       -1.4316784164        1.8104238974
 H          5.6322058284       -3.1927983841       -1.6992263976
 H          4.9402444398       -1.6744721744       -2.2725007649
 H          4.3275852871       -2.9212286488        0.4430087961
 H          3.3665187729       -3.1821535364       -1.0215982643
 O          2.1366759951       -1.1625658704       -1.0871256736
 C          1.2320116105       -0.1098875868       -1.0219620705
 O          0.3332850139       -0.1757927573       -1.8825153134
 O          2.6871311547        1.6555453286        1.7828302573
 C          0.4803056073        2.0448366983        0.1039974892
 C         -0.7363463313        1.7242455646        0.9447382285
 C         -1.4136415421        2.7493136945        1.5992278034
 C         -2.5317754150        2.4795835795        2.3651158141
 C         -3.0066033287        1.1852735722        2.4850992523
 C         -2.3387095624        0.1538802646        1.8369410288
 C         -1.2097661781        0.4290491600        1.0761467313
 H         -0.6984233696       -0.3890481610        0.5939989487
 N         -2.7843054716       -1.1729475937        1.9502430022
 S         -2.8494903468       -2.1394758737        0.5822171423
 O         -3.7296609546       -3.2252236898        0.9627149119
 O         -1.5221150395       -2.5214680782        0.1749227641
 C         -3.6605513534       -1.1115182559       -0.6279749889
 C         -2.9341606122       -0.4110666384       -1.5685559673
 C         -3.6124953191        0.4409252042       -2.4285734114
 C         -4.9879683107        0.5784340550       -2.3347867569
 C         -5.7026230958       -0.1387917341       -1.3867434782
 C         -5.0337076130       -0.9880457529       -0.5220922582
 H         -5.5496537519       -1.5725273472        0.2225405133
 H         -6.7735366082       -0.0357534005       -1.3180503078
 H         -5.5051695371        1.2458106085       -3.0060189410
 H         -3.0526805374        0.9932584947       -3.1667947746
 H         -1.8634474401       -0.5330696199       -1.6280328733
 H         -3.6228593788       -1.2823966178        2.5025958948
 H         -3.8784490993        0.9703592424        3.0836533257
 H         -3.0418129472        3.2832759146        2.8733380802
 H         -1.0490656530        3.7611369642        1.5144774743
 H          1.0577224630        2.8079545535        0.6462467957
 C          0.0372250397        2.6326345812       -1.2239168423
 C         -0.1495252601        4.1114575125       -1.3723891627
 C          1.0106432290        3.4326762457       -2.0349077391
 H          1.0064012712        3.3125356036       -3.1076452443
 H          1.9963469423        3.5849039143       -1.6190199863
 H         -0.9591651191        4.4664833368       -1.9908501413
 H          0.0621132053        4.7382257996       -0.5197096071
 H         -0.6368452339        1.9832893864       -1.7675347013
