  62
        -98.94446652
 C          1.9369888939        1.4164150706       -0.0375343085
 C          2.6918702249        0.6499562715        0.8914551142
 C          3.4932574921       -0.4493673464        0.3399775424
 C          3.5096041583       -0.6436993754       -0.9908357493
 C          4.2506029225       -1.7454388848       -1.6907637997
 C          3.3623287126       -2.9851521056       -1.8673305441
 C          2.6334156898       -3.4021004160       -0.5902054723
 H          1.9323332805       -2.6107277159       -0.3144587865
 H          2.0459385742       -4.2922303906       -0.8265007665
 C          3.5557830301       -3.6961961101        0.6014112079
 H          3.2270188735       -4.6216368444        1.0787471479
 H          4.5746754258       -3.8592297286        0.2484066067
 C          3.5621654761       -2.6133680139        1.6825840680
 H          4.0711206209       -3.0158733496        2.5622100154
 H          2.5357971896       -2.3797185398        1.9765296035
 C          4.2642448340       -1.3016796927        1.3080577958
 H          4.3645227550       -0.7051763085        2.2193402867
 H          5.2642558736       -1.5143944909        0.9249751729
 H          2.6141040735       -2.7693848663       -2.6339087310
 H          3.9831745546       -3.8094384055       -2.2227235471
 H          4.5570708782       -1.3844639857       -2.6740056628
 H          5.1387518891       -2.0003015733       -1.1158230045
 O          2.7982543212        0.1232942411       -1.8527588743
 C          1.9746846990        1.1475901507       -1.4055914768
 O          1.3519089290        1.7116193627       -2.3292249614
 H         -0.6325667340        1.6657042400       -1.3410114790
 C         -1.0917449217        1.7049503117       -0.3643134969
 C         -0.3436229502        2.1332574002        0.7230678249
 C         -0.9480885159        2.1665696364        1.9741953484
 C         -2.2730157305        1.7959829644        2.1279411163
 C         -3.0169820768        1.3729633902        1.0414481708
 C         -2.4149997782        1.3179407299       -0.2096101832
 N         -3.1482227402        0.8528992311       -1.3142403390
 S         -4.0847824956       -0.5163993485       -1.1010463929
 O         -4.1217338175       -1.1628049993       -2.3940433816
 O         -5.3646794755       -0.1404003264       -0.5529239507
 C         -3.2098018124       -1.5303088203        0.0804128610
 C         -3.8331949400       -1.9006709361        1.2547803899
 C         -3.1390834793       -2.6776351941        2.1682267296
 C         -1.8382913533       -3.0685753962        1.8928691992
 C         -1.2275565365       -2.6932661063        0.7060777923
 C         -1.9162677369       -1.9160637750       -0.2108111662
 H         -1.4639777695       -1.6098954166       -1.1414551241
 H         -0.2157139912       -3.0004166088        0.4934333671
 H         -1.2941852506       -3.6695295115        2.6042058924
 H         -3.6123249848       -2.9725065917        3.0908196214
 H         -4.8449856064       -1.5722684256        1.4286494424
 H         -2.6088556858        0.8049516092       -2.1662966626
 H         -4.0517505041        1.0874073147        1.1402180238
 H         -2.7313766411        1.8340394557        3.1040591905
 H         -0.3689421194        2.4760279937        2.8315213071
 C          1.0993556383        2.5431112043        0.5451810443
 H          1.5193344035        2.7214789781        1.5441497499
 C          1.1869037190        3.8336275174       -0.2466250461
 C          0.8809963784        5.1297707766        0.4393432946
 C          2.2904202214        4.8025176599        0.0485409716
 H          2.7388247047        5.3380920331       -0.7747513624
 H          2.9888879961        4.5413638475        0.8302690260
 H          0.3572638301        5.8935627776       -0.1146420577
 H          0.6252483044        5.0937352918        1.4873373247
 H          0.8832250916        3.7268487520       -1.2798937500
 O          2.6960477334        0.8814908409        2.1291396265
