  62
        -98.93526562
 C         -1.7418765041       -0.1452352226        0.3098175779
 C         -2.9046894937       -0.4814976824        1.0480409214
 C         -4.1795214649        0.1313563799        0.6284181790
 C         -4.1666728352        1.0099696322       -0.3905539952
 C         -5.3294690186        1.7337254953       -1.0156206555
 C         -6.1700069342        0.8267249775       -1.9285274786
 C         -6.4763100648       -0.5546078703       -1.3557604281
 H         -6.9840183791       -1.1310273605       -2.1336691600
 H         -5.5382642229       -1.0667417541       -1.1342599454
 C         -7.3646623117       -0.5622859106       -0.1139443547
 H         -8.3137192884       -0.0755681611       -0.3495816978
 H         -7.5785224007       -1.6073135744        0.1247105828
 C         -6.7761511345        0.0978103244        1.1351114862
 H         -6.8414988838        1.1809851982        1.0755056263
 H         -7.3964903886       -0.2031591522        1.9844404257
 C         -5.3488061282       -0.3255577097        1.4671533095
 H         -5.2961345632       -1.4200671506        1.4924336085
 H         -5.1191341481       -0.0041512308        2.4902734546
 H         -7.1032834132        1.3421751708       -2.1615900199
 H         -5.6206421935        0.6855566862       -2.8626975688
 H         -4.9078903661        2.5405293537       -1.6194745686
 H         -5.9464876052        2.1859935063       -0.2448779472
 O         -3.0181946730        1.3403687631       -1.0439716420
 C         -1.7874678114        0.7862710221       -0.7283246977
 O         -0.8556048531        1.2070221322       -1.4386349053
 O         -2.8868754053       -1.2745770830        2.0271917205
 C         -0.4365526211       -0.7869829113        0.7476663875
 C          0.6256544638        0.2601659576        0.9524933338
 C          0.6814558999        0.9683032901        2.1486086988
 C          1.6525779181        1.9305910009        2.3598425852
 C          2.5850993928        2.2129500287        1.3764689669
 C          2.5240020957        1.5241501283        0.1743228696
 C          1.5616997865        0.5459864006       -0.0292192250
 H          1.5229352395        0.0221317651       -0.9716675467
 N          3.4941426408        1.7944151797       -0.8240381687
 S          4.9730185430        1.0714629945       -0.5128112347
 O          5.5381076479        1.6704878817        0.6689722557
 O          5.7472830491        1.1885579575       -1.7276501520
 C          4.5654722794       -0.6367954729       -0.1980349977
 C          4.2261192271       -1.0178505486        1.0847546696
 C          3.8038372121       -2.3187732245        1.3063904269
 C          3.7235391375       -3.2092266390        0.2464238177
 C          4.0692912706       -2.8111941514       -1.0360976585
 C          4.4880205184       -1.5103245568       -1.2642734977
 H          4.7657126012       -1.1597881522       -2.2456179396
 H          4.0066897939       -3.5072160643       -1.8573188957
 H          3.3880994103       -4.2196479096        0.4213212915
 H          3.5297523466       -2.6299325093        2.3017262101
 H          4.3006162449       -0.2955083318        1.8811857505
 H          3.1809311037        1.5249393643       -1.7467273676
 H          3.3608140912        2.9467705758        1.5238999734
 H          1.6848174989        2.4654082059        3.2969619007
 H         -0.0491203436        0.7547053187        2.9166017491
 H         -0.6726896546       -1.2291093595        1.7287031586
 C          0.0482195957       -1.9276963091       -0.1359609854
 C         -0.9226173899       -2.9156581249       -0.7072891878
 C         -0.1822554836       -1.9818448408       -1.6151016062
 H          0.6038767375       -2.3877636077       -2.2352698708
 H         -0.7249060992       -1.1715651285       -2.0761984264
 H         -0.6555956180       -3.9613174330       -0.7112055511
 H         -1.9735188916       -2.7322034878       -0.5364854183
 H          0.9950718482       -2.3259943972        0.2167622317
