  62
        -98.94384388
 C          1.7477059972        1.2779036397        0.9603369837
 C          2.9020149622        0.7754840986        0.3122804016
 C          3.2112685288       -0.6399213662        0.5779006738
 C          2.4357933547       -1.3676637404        1.3988184919
 C          2.6187962420       -2.8206684923        1.7418351894
 C          2.0201747607       -3.7709089932        0.6953074364
 C          2.8221276974       -3.8943908584       -0.6011517419
 H          3.8694753666       -4.0914649137       -0.3671378878
 H          2.4354437443       -4.7652433656       -1.1345409586
 C          2.7153195508       -2.6710780427       -1.5222758952
 H          1.8401377962       -2.0816764563       -1.2375108032
 H          2.5464400683       -3.0043391324       -2.5496870525
 C          3.9530436993       -1.7732683310       -1.5354515121
 H          3.7444568941       -0.9145383080       -2.1789423833
 H          4.7958116887       -2.3198742040       -1.9661213836
 C          4.3702351548       -1.2426203578       -0.1583519342
 H          4.8197749222       -2.0413890442        0.4312244952
 H          5.1132090254       -0.4548389298       -0.3080188326
 H          1.0076963926       -3.4338806332        0.4572187741
 H          1.9483988296       -4.7611394143        1.1520660809
 H          2.1048522506       -2.9839911383        2.6915996480
 H          3.6784847816       -3.0412526307        1.8760306416
 O          1.3681562004       -0.8347739913        2.0469872108
 C          0.9822976330        0.4685070675        1.8072110631
 O         -0.0494324961        0.8149199065        2.4207823304
 O          3.6592327346        1.4362500043       -0.4444972145
 C          1.1499244782        2.6659462158        0.7543989941
 C         -0.2265375395        2.5149479959        0.1521169929
 C         -1.2786653795        3.3464788358        0.5175151055
 C         -2.5382078507        3.1728348850       -0.0287851836
 C         -2.7833303599        2.1392489434       -0.9152705828
 C         -1.7402754230        1.2956994506       -1.2761304276
 C         -0.4668157193        1.5116541065       -0.7749101343
 H          0.3304949863        0.8454487668       -1.0706410502
 N         -1.9423399960        0.1715887234       -2.1082041728
 S         -1.8020677594       -1.3034782441       -1.3123639360
 O         -0.4984228497       -1.4166536160       -0.7161791570
 O         -2.1471636631       -2.3026031343       -2.3009382055
 C         -3.0787679981       -1.2336248343       -0.0684311359
 C         -2.8336374034       -0.5870794475        1.1263739227
 C         -3.8701829635       -0.4664818817        2.0404624474
 C         -5.1213008162       -0.9858694758        1.7472377843
 C         -5.3495053942       -1.6335293312        0.5419669027
 C         -4.3213869911       -1.7541146638       -0.3780645541
 H         -4.4489918419       -2.2519411601       -1.3259860494
 H         -6.3222896753       -2.0399837076        0.3165513057
 H         -5.9216822714       -0.8858650251        2.4633081004
 H         -3.6837892680        0.0383115272        2.9748511887
 H         -1.8518730684       -0.1924249716        1.3405675599
 H         -2.8240575096        0.1888593116       -2.6038365944
 H         -3.7736182966        1.9754777240       -1.3132391491
 H         -3.3443528951        3.8289378355        0.2612764625
 H         -1.1102782667        4.1191368376        1.2532330761
 H          1.0149433027        3.1039367919        1.7587078117
 C          2.0205186694        3.6233700072       -0.0423619369
 C          1.8797405020        3.7925417957       -1.5222005628
 C          1.4589979379        4.8968617899       -0.6016387315
 H          2.0695817407        5.7855886115       -0.5523927881
 H          0.4008376231        5.0785915864       -0.4940312135
 H          2.7827143322        3.9037931883       -2.1025037614
 H          1.1091314323        3.2259196220       -2.0236631317
 H          3.0296291566        3.6718367448        0.3486539547
