  62
        -98.94270642
 C         -2.0044320173       -0.7762819191       -0.4531164628
 C         -0.9611284915       -1.3281382980       -1.2319666000
 C         -0.2984379623       -2.5169197199       -0.6836507459
 C         -0.6871372663       -2.9997835931        0.5097732345
 C         -0.1341163071       -4.2134488550        1.2077878281
 C          1.3322435842       -4.1021657145        1.6694187004
 C          2.3459946664       -4.7004402604        0.6858487860
 H          3.1142378800       -5.2303973736        1.2525579476
 H          1.8398088894       -5.4454372066        0.0703105663
 C          3.0678404432       -3.6964908699       -0.2178935416
 H          3.5414037533       -4.2550485717       -1.0285707234
 H          3.8600147854       -3.2073573973        0.3541166573
 C          2.1976482923       -2.5914381762       -0.8170771041
 H          1.9656678079       -1.8528183595       -0.0449586577
 H          2.7889196742       -2.0724618935       -1.5752516015
 C          0.8725772572       -3.0766126764       -1.4393486785
 H          0.7877448829       -2.7111703070       -2.4650866147
 H          0.8317476002       -4.1648932954       -1.4569765654
 H          1.4121768010       -4.6417281656        2.6147378279
 H          1.5657049557       -3.0563307402        1.8739772310
 H         -0.7734749686       -4.3661907934        2.0796278256
 H         -0.2466335570       -5.0807471964        0.5530742578
 O         -1.6907671606       -2.4364593479        1.2340273757
 C         -2.3413141527       -1.2931346756        0.7975717941
 O         -3.1943635031       -0.8561380134        1.5947508689
 H         -0.2150660285        1.1405318515       -0.2461829384
 C         -0.9155448204        1.7484404400        0.3020497995
 C         -2.2747890446        1.5963227291        0.0558536070
 C         -3.1691084056        2.3971931354        0.7508481788
 C         -2.7040538343        3.2901486787        1.7026544775
 C         -1.3561345289        3.3847038468        1.9947395719
 C         -0.4501383181        2.5986761472        1.2880638964
 N          0.9236011197        2.6632915379        1.5511465006
 S          1.9652500879        1.3795377458        1.2778661585
 O          1.2976226274        0.1003009747        1.3251771263
 O          3.0232598339        1.5768669318        2.2479467767
 C          2.6213820305        1.7307315698       -0.3413547777
 C          3.5489890109        2.7527003938       -0.4255771436
 C          4.0808583135        3.0824128628       -1.6605423387
 C          3.6781819810        2.3879664765       -2.7918641682
 C          2.7490505030        1.3651504702       -2.6920853262
 C          2.2129240051        1.0304588250       -1.4574825655
 H          1.4866880642        0.2377237081       -1.3689924372
 H          2.4265513743        0.8209018563       -3.5655241193
 H          4.0906148696        2.6426856348       -3.7553956106
 H          4.8052222361        3.8770310333       -1.7385382637
 H          3.8432236718        3.2562500110        0.4802334353
 H          1.1816836043        3.1939653586        2.3690770846
 H         -1.0045090325        4.0529569976        2.7660424686
 H         -3.4073111343        3.9041579091        2.2449676654
 H         -4.2271958738        2.3092097095        0.5668248780
 C         -2.6696756644        0.5108060808       -0.9162179960
 H         -2.2227150662        0.7385202749       -1.8949412096
 C         -4.1628211433        0.3413369512       -1.0829124336
 C         -4.9185869433        1.2410413110       -2.0134745331
 C         -4.6937588669       -0.1949135759       -2.3774179237
 H         -5.5322214869       -0.8743224703       -2.3473695279
 H         -3.9765122478       -0.4215127051       -3.1526601838
 H         -5.9155327865        1.5487013420       -1.7367036671
 H         -4.3564182161        1.9925285993       -2.5466590836
 H         -4.6507257215        0.0183502111       -0.1705602494
 O         -0.5934326657       -0.8436067439       -2.3378600420
