  62
        -98.93785271
 C         -2.5829164367       -1.1458735149        0.5378930437
 C         -3.4494336285       -0.8687359060       -0.5486802638
 C         -4.5753156532        0.0339216678       -0.2531737531
 C         -4.7218415529        0.5346259515        0.9858962024
 C         -5.7834114634        1.5113542956        1.3995701215
 C         -5.3010032610        2.9592916241        1.2335920197
 C         -4.6762725924        3.2498355605       -0.1310678731
 H         -4.4024174598        4.3070051504       -0.1444978717
 H         -3.7508418219        2.6774276218       -0.2287096379
 C         -5.5901800332        2.9433111904       -1.3257769879
 H         -6.6261109422        2.8741513150       -0.9918162521
 H         -5.5325302412        3.7736584561       -2.0327561285
 C         -5.2210183476        1.6750916269       -2.0974800224
 H         -4.1589225927        1.6987090955       -2.3537821762
 H         -5.7837631547        1.6715391378       -3.0347951518
 C         -5.5148146470        0.3498214210       -1.3831757933
 H         -6.5504713162        0.3392064380       -1.0376102964
 H         -5.3869821162       -0.4551767654       -2.1128478639
 H         -6.1494417972        3.6262862934        1.3971818970
 H         -4.5532158043        3.1651408313        2.0029853578
 H         -6.6770017843        1.3440544097        0.8013798828
 H         -6.0219867903        1.3352906013        2.4498483311
 O         -3.8749672891        0.2393893767        2.0055647202
 C         -2.7888722803       -0.5931505691        1.8049895492
 O         -2.0892948917       -0.7746998898        2.8227443559
 H          1.0277763366       -1.8435749186        1.6462666872
 C          0.9964539089       -1.2649586148        0.7325071499
 C         -0.1651649362       -1.2525591679       -0.0248405250
 C         -0.1955793861       -0.4891357855       -1.1881265893
 C          0.9140746073        0.2388815831       -1.5760012792
 C          2.0699078137        0.2280228595       -0.8141919899
 C          2.1110430400       -0.5289040783        0.3485254584
 N          3.2718255648       -0.5281916508        1.1368854350
 S          4.7632753342       -0.7369453536        0.3984645444
 O          4.6492053418       -1.5278450894       -0.8045112275
 O          5.6240524503       -1.2624549058        1.4351398650
 C          5.2785314204        0.9192924110       -0.0014039986
 C          5.6470891832        1.2331392194       -1.2948628245
 C          6.0535537289        2.5273675393       -1.5805037683
 C          6.0856035098        3.4787785364       -0.5725712060
 C          5.7153664747        3.1464225803        0.7221933457
 C          5.3085457289        1.8544780409        1.0144241316
 H          5.0154995849        1.5564844065        2.0073540559
 H          5.7417361498        3.8890232786        1.5033901742
 H          6.4010369828        4.4854858067       -0.7970816826
 H          6.3422870625        2.7876626364       -2.5861841013
 H          5.6015206019        0.4620873544       -2.0475543890
 H          3.1989066654       -1.0767880039        1.9810656207
 H          2.9351496839        0.7966319761       -1.1131395824
 H          0.8787207531        0.8256358440       -2.4814794513
 H         -1.0961163030       -0.4791847686       -1.7832494312
 C         -1.3652309205       -2.0486266935        0.4200433799
 H         -1.1681964098       -2.3951646666        1.4470567341
 C         -1.6169410962       -3.2875070697       -0.4291563561
 C         -0.9482618858       -3.5539868201       -1.7408119815
 C         -0.5578631526       -4.3456839352       -0.5314682979
 H         -0.8509552837       -5.3827111887       -0.4681663810
 H          0.4030516953       -4.1310391461       -0.0866525181
 H         -0.2464287553       -2.8275673319       -2.1187968230
 H         -1.5347859922       -4.0322477318       -2.5102349547
 H         -2.6399232216       -3.6373518046       -0.3368680321
 O         -3.3103036296       -1.3363145205       -1.7071106702
