  62
        -98.93880825
 C         -2.5795308408       -0.1206228021       -0.4591551492
 C         -2.2704660901       -0.7926133019        0.7463918208
 C         -1.7686885592       -2.1719064916        0.6199273506
 C         -1.6254839890       -2.7116049314       -0.6024809994
 C         -1.1753938181       -4.1002101011       -0.9883780495
 C         -0.0523750875       -4.7533303704       -0.1768427497
 C          1.0753407919       -3.8044909796        0.2536830901
 H          0.9843162311       -2.8443827397       -0.2586615298
 H          2.0340783321       -4.2385718189       -0.0375046301
 C          1.1053016920       -3.5585822696        1.7633083201
 H          2.0990042718       -3.1975714690        2.0384390000
 H          0.9412234327       -4.5045933498        2.2849803301
 C          0.0947515614       -2.5266331503        2.2574695403
 H          0.3423211706       -1.5481617802        1.8351758003
 H          0.1888291315       -2.4471209703        3.3434598603
 C         -1.3723733785       -2.8326061713        1.9091462306
 H         -2.0052883587       -2.3834210818        2.6794175707
 H         -1.5588964278       -3.9037419015        1.8893338506
 H          0.3593411129       -5.5472547901       -0.8031711398
 H         -0.4719092971       -5.2355540707        0.7049914103
 H         -0.8641831084       -4.0138997609       -2.0328897996
 H         -2.0540326577       -4.7532737017       -0.9696950094
 O         -1.9494011797       -2.0286366016       -1.7402897193
 C         -2.3957525206       -0.7204793819       -1.7012816692
 O         -2.6013412211       -0.2107971720       -2.8247104292
 O         -2.4135899503       -0.2686284420        1.8822568208
 C         -2.9913358017        1.3397747676       -0.4208557891
 C         -1.9109808922        2.1385823383        0.2715324908
 C         -2.1653564228        3.1944447881        1.1360496708
 C         -1.1165083831        3.8640389889        1.7449117007
 C          0.1950659871        3.4878074198        1.5242279005
 C          0.4595289777        2.4284722600        0.6605974504
 C         -0.5891696820        1.7936576393        0.0199434005
 H         -0.3758373916        0.9933665994       -0.6733255495
 N          1.7736407480        1.9688157209        0.4733547701
 S          2.1521722585        0.8375219512       -0.7083979399
 O          1.9290657479        1.3899290110       -2.0289507799
 O          1.4907168194       -0.4053339193       -0.4081525599
 C          3.9013310787        0.6728650423       -0.4104721802
 C          4.7866479680        1.4927812330       -1.0844071004
 C          6.1427219682        1.3731014939       -0.8238531006
 C          6.5878540290        0.4411845042        0.1017610693
 C          5.6877258896       -0.3769261365        0.7682424394
 C          4.3306358195       -0.2613686274        0.5124682597
 H          3.5918998600       -0.8787247079        0.9973909298
 H          6.0373097102       -1.1034207162        1.4838847493
 H          7.6435510391        0.3492116849        0.3023685291
 H          6.8452966776        2.0047946544       -1.3430960607
 H          4.3961986474        2.1925629627       -1.8058517003
 H          2.4842816975        2.6770371113        0.5841751400
 H          1.0073729268        3.9955167503        2.0205355303
 H         -1.3264359636        4.6854219287        2.4132304307
 H         -3.1823364029        3.4888770074        1.3382502110
 H         -3.0454458722        1.6699192076       -1.4698391290
 C         -4.3561836218        1.5001174067        0.2159249212
 C         -5.2696837526        2.6059687361       -0.2178314386
 C         -5.5738577617        1.1894160759       -0.5997190086
 H         -6.4021933813        0.6895640453       -0.1207892585
 H         -5.4159980716        0.8882105860       -1.6255266487
 H         -5.8950504328        3.0791188156        0.5241400015
 H         -4.9172064232        3.2721523163       -0.9909640787
 H         -4.3618296814        1.2059027066        1.2590082212
