  62
        -98.93747941
 C          1.8619567043        0.3180565620       -0.0940226095
 C          2.8953332136        0.7178190196        0.7882495610
 C          4.1752117737        0.0077409904        0.6546592601
 C          4.2823926599       -0.9824444568       -0.2500095109
 C          5.5385463255       -1.7463043946       -0.5588857133
 C          6.4705738707       -0.8899443016       -1.4400773111
 C          7.7857995351       -0.4933358194       -0.7689771757
 H          8.4528650184       -1.3579065879       -0.7568860023
 H          8.2519434246        0.2732236907       -1.3917483965
 C          7.6730887841        0.0308706633        0.6658946053
 H          8.6245297427        0.5113838490        0.9037830220
 H          7.5677786701       -0.8077319678        1.3558846235
 C          6.5382501118        1.0289684122        0.9292414869
 H          6.2527939102        1.5384044114        0.0086360897
 H          6.9114556730        1.7939022259        1.6132189686
 C          5.2853038573        0.4167035469        1.5829478011
 H          5.5764097882       -0.4361388275        2.2024184688
 H          4.8359131692        1.1638955934        2.2436556916
 H          6.7053697207       -1.4335774274       -2.3564559672
 H          5.9277288743        0.0091940917       -1.7391017892
 H          6.0366298365       -2.0258088338        0.3668687709
 H          5.2455947027       -2.6546558458       -1.0858086955
 O          3.2584898075       -1.3578986494       -1.0591609307
 C          2.0251225609       -0.7240633888       -1.0060522455
 O          1.1861281860       -1.1733701414       -1.8096083530
 H         -1.5469849070       -0.2097374447       -1.3429590498
 C         -1.4935286764       -0.4921302882       -0.3034574602
 C         -0.5070679747        0.0428754246        0.5092344596
 C         -0.4552679340       -0.3559980410        1.8424526583
 C         -1.3648766788       -1.2661318616        2.3464513692
 C         -2.3477216250       -1.8006012719        1.5303614798
 C         -2.4034740913       -1.4124515974        0.1997729275
 N         -3.4229254782       -1.9356125756       -0.6282393575
 S         -4.9723880081       -1.4362802815       -0.2266280335
 O         -5.3627465725       -2.0662531254        1.0086551957
 O         -5.7930728675       -1.7240761998       -1.3808601458
 C         -4.8146641428        0.3252219025        0.0053386540
 C         -4.4956847597        0.8143964686        1.2560943394
 C         -4.2758617101        2.1742734610        1.4058735175
 C         -4.3779661749        3.0161073531        0.3092468852
 C         -4.7041874195        2.5095452422       -0.9395648006
 C         -4.9175329235        1.1499335625       -1.0971880699
 H         -5.1750021903        0.7157438257       -2.0501096971
 H         -4.7864666454        3.1686466621       -1.7888534857
 H         -4.2032925562        4.0739717118        0.4281108471
 H         -4.0206853391        2.5703678933        2.3756731176
 H         -4.4296754631        0.1284042934        2.0843583239
 H         -3.2562216357       -1.7603724592       -1.6095074199
 H         -3.0760171543       -2.5017583842        1.9049428898
 H         -1.3103599689       -1.5637378089        3.3827292254
 H          0.3153259599        0.0577666698        2.4781639713
 C          0.5195575717        1.0234111411        0.0017194614
 H          0.6553935372        1.7981333156        0.7686894031
 C          0.1352297197        1.6880556345       -1.3031394123
 C         -0.9813633824        2.6883024406       -1.3145542590
 C          0.4341707470        3.1422040496       -1.5029604613
 H          0.7446129090        3.4729078663       -2.4828050946
 H          0.9160572296        3.6686339320       -0.6924324068
 H         -1.4658829410        2.9009986974       -0.3737775876
 H         -1.6462635149        2.7100030647       -2.1644067482
 H          0.2451324251        1.0359365544       -2.1617415258
 O          2.7515928938        1.6271941802        1.6485416903
