  62
        -98.94002884
 C         -1.7241135249       -1.1068982511        0.3600753713
 C         -2.0200755515       -0.0118000835       -0.4887648282
 C         -3.4237784707        0.1023107913       -0.9201045209
 C         -4.3265496251       -0.7984316019       -0.4939324799
 C         -5.7923517083       -0.7655540896       -0.8139629260
 C         -6.5745844310        0.0193727517        0.2483929215
 C         -5.9693540092        1.3837733605        0.5788476482
 H         -4.9971449715        1.2377642176        1.0552599319
 H         -6.6203735390        1.8583053640        1.3162425995
 C         -5.8036001069        2.3148107680       -0.6303248210
 H         -6.1499141650        3.3129502518       -0.3540260246
 H         -6.4319172063        1.9702739148       -1.4525152115
 C         -4.3629967708        2.4649918782       -1.1232222148
 H         -3.7110331961        2.7206716777       -0.2838095757
 H         -4.3296123781        3.3003632116       -1.8279334856
 C         -3.7702363573        1.2426786780       -1.8355504370
 H         -2.8283216710        1.5537815752       -2.2976881844
 H         -4.4476162382        0.9121917581       -2.6259006631
 H         -6.6028626443       -0.5734132921        1.1655418111
 H         -7.5994201187        0.1497595020       -0.1037710208
 H         -6.1619625519       -1.7920456437       -0.8398550827
 H         -5.9348013942       -0.3136663927       -1.7936398978
 O         -4.0086916959       -1.8259608827        0.3339939610
 C         -2.7126759126       -1.9946376753        0.7937118568
 O         -2.5699613384       -2.9540409529        1.5770158394
 O         -1.1725097330        0.8349807953       -0.8728583744
 C         -0.3220366009       -1.3484267123        0.8933079486
 C          0.3007375706       -0.0472899090        1.3353552435
 C         -0.3120194276        0.6688009694        2.3606634889
 C          0.2184737747        1.8658270823        2.7993767311
 C          1.3813838795        2.3642253098        2.2393554432
 C          2.0078033082        1.6523699626        1.2227268153
 C          1.4656328768        0.4543641494        0.7769302246
 H          1.9348036931       -0.0568697023       -0.0456386032
 N          3.2184784750        2.1089655959        0.6940427467
 S          3.8759231711        1.5983518104       -0.7462105277
 O          5.0381215954        2.4473506496       -0.9101198152
 O          2.9325192175        1.6153943577       -1.8384070989
 C          4.4100522230       -0.0691241848       -0.4189753409
 C          4.9835417183       -0.3675928947        0.8009923541
 C          5.4055952313       -1.6654539689        1.0416466635
 C          5.2527486290       -2.6366243400        0.0638181203
 C          4.6827939583       -2.3192666682       -1.1593741214
 C          4.2588814214       -1.0230296261       -1.4056785433
 H          3.8016117969       -0.7317163226       -2.3384939396
 H          4.5648180978       -3.0750591624       -1.9196442040
 H          5.5782104111       -3.6470080776        0.2551173781
 H          5.8496498255       -1.9165990941        1.9914356645
 H          5.0839827013        0.4093175045        1.5402321175
 H          3.5024498485        3.0389038993        0.9592771553
 H          1.7980318189        3.2992795604        2.5812134511
 H         -0.2754444693        2.4176579121        3.5852458692
 H         -1.2218929485        0.2790201468        2.7977267950
 H         -0.4644772205       -1.9715766944        1.7921443431
 C          0.5687607360       -2.1463003577       -0.0477918033
 C         -0.0101314984       -3.1669807558       -0.9800435333
 C          0.5863513451       -1.9063082496       -1.5260594035
 H          1.5326028773       -1.9671747023       -2.0429819670
 H         -0.0710559428       -1.1460577279       -1.9179919886
 H          0.5258220042       -4.0933118693       -1.1204512324
 H         -1.0846272473       -3.2772646109       -0.9993005867
 H          1.5178226740       -2.4032437001        0.4139026359
