  62
        -98.93736215
 C         -2.2800745281        0.5279842981        0.2418283927
 C         -3.5351492239        1.0168248901        0.6874178640
 C         -4.7055306194        0.6281599070       -0.1098011012
 C         -4.5254296202       -0.1059083404       -1.2224722349
 C         -5.6298871682       -0.6242532913       -2.0962525662
 C         -6.0821096894       -2.0206700024       -1.6462490431
 C         -6.3616219073       -2.1268735356       -0.1469475729
 H         -5.4260566531       -1.9908410256        0.4007854312
 H         -6.7013256360       -3.1462161933        0.0489834202
 C         -7.4052482399       -1.1302814707        0.3768846495
 H         -8.0936945784       -1.6602403620        1.0384198668
 H         -7.9919789632       -0.7376025973       -0.4542677049
 C         -6.8238874119        0.0345480006        1.1804438258
 H         -6.1610053119       -0.3519028304        1.9590553748
 H         -7.6491662824        0.5485455049        1.6802488975
 C         -6.0544581487        1.0850806650        0.3697366323
 H         -5.8648575899        1.9391726822        1.0264518322
 H         -6.6668473586        1.4244004016       -0.4679729339
 H         -5.2966347137       -2.7367272062       -1.8989777979
 H         -6.9800778864       -2.2896293673       -2.2053761937
 H         -5.2583193301       -0.6845592188       -3.1204668942
 H         -6.4679980336        0.0691191245       -2.0634373345
 O         -3.3021528502       -0.5004693127       -1.6558757913
 C         -2.1480922521       -0.2055083100       -0.9383737422
 O         -1.1081853679       -0.6425744743       -1.4640871679
 O         -3.6688610447        1.7484023023        1.7047363314
 C         -1.0588017694        0.8828655935        1.0699797759
 C          0.0640914034        1.3670825400        0.1890402854
 C         -0.1067599187        2.5517722242       -0.5233993884
 C          0.8956459683        3.0356104235       -1.3407602482
 C          2.0979649421        2.3591582051       -1.4506425627
 C          2.2752300638        1.1723941373       -0.7503072665
 C          1.2613403936        0.6827845289        0.0612740864
 H          1.4195840886       -0.2507452667        0.5748606380
 N          3.4715822044        0.4470774530       -0.8616516131
 S          4.0373241396       -0.3907281641        0.4875409651
 O          3.4189904043       -1.6915219192        0.5365778315
 O          3.8965022400        0.4263489141        1.6726209233
 C          5.7605085197       -0.5615891706        0.0588993243
 C          6.6753648539        0.3489468352        0.5533148740
 C          8.0073726636        0.2256446415        0.1904000553
 C          8.3993348911       -0.7982391035       -0.6588438332
 C          7.4696962313       -1.7046160257       -1.1470944583
 C          6.1365146324       -1.5879014868       -0.7871763332
 H          5.3800626435       -2.2726809069       -1.1340340616
 H          7.7784768874       -2.5011893314       -1.8045995812
 H          9.4363921432       -0.8925603879       -0.9396877959
 H          8.7328193552        0.9266562638        0.5706858997
 H          6.3257745203        1.1229609500        1.2174901554
 H          4.2069441512        0.9604494345       -1.3272282769
 H          2.8854198275        2.7390108533       -2.0838604465
 H          0.7457480887        3.9531468874       -1.8898940217
 H         -1.0439704826        3.0843274440       -0.4310522328
 H         -1.3880707296        1.7328816333        1.6921812928
 C         -0.6237888191       -0.2123160720        2.0322618598
 C         -1.6223190591       -1.1436235181        2.6495505059
 C         -0.6289957319       -1.6621061835        1.6554573476
 H          0.1838394929       -2.2821731777        2.0060292199
 H         -0.9720299439       -1.9208067620        0.6657065151
 H         -1.5023129576       -1.4114211523        3.6884540885
 H         -2.6522352182       -1.0475683634        2.3376233025
 H          0.1902274930        0.1151967397        2.6737218519
