  62
        -98.94848425
 C          0.8315525831        1.2243168743        0.5680684198
 C          1.2008335499        0.5364301554       -0.6125460182
 C          2.1413744835       -0.5758387478       -0.4260676951
 C          2.4745123359       -0.9662050541        0.8169540640
 C          3.4169602845       -2.0846881951        1.1705218583
 C          4.8922387950       -1.6603204494        1.1906460149
 C          5.5119402742       -1.4132189832       -0.1855840281
 H          6.5913335750       -1.3362045880       -0.0405681402
 H          5.3304667802       -2.2779106369       -0.8244395005
 C          5.0160785763       -0.1399112489       -0.8854943936
 H          4.5393585073        0.5162687783       -0.1534563601
 H          5.8698519207        0.4057279126       -1.2937345203
 C          4.0426329137       -0.3860397413       -2.0387324468
 H          3.7330598114        0.5840424066       -2.4353876501
 H          4.5527828810       -0.9291068774       -2.8371586928
 C          2.7787442663       -1.1648717973       -1.6474889143
 H          3.0216650710       -2.2140521472       -1.4867531049
 H          2.0589859135       -1.0858067398       -2.4648171525
 H          4.9888791056       -0.7602391832        1.8024067803
 H          5.4553494174       -2.4571067056        1.6822516917
 H          3.2911898609       -2.9126712087        0.4729417810
 H          3.1405970510       -2.4231695111        2.1715469772
 O          1.9681165619       -0.3731458385        1.9329316698
 C          1.1944718172        0.7729339516        1.8359820550
 O          0.8908101453        1.2844113971        2.9343158312
 O          0.7901506405        0.8461253509       -1.7596248221
 C          0.0170709551        2.5012376594        0.4744802401
 C         -1.3109349565        2.2401217274       -0.1910361569
 C         -1.8191243381        3.0218217241       -1.2204234138
 C         -3.0570781284        2.7363112493       -1.7693810936
 C         -3.8114386332        1.6754142573       -1.3045187238
 C         -3.3158397103        0.8942960353       -0.2657047398
 C         -2.0749290380        1.1792781938        0.2800905917
 H         -1.7003911846        0.5746927768        1.0941445072
 N         -4.0693755995       -0.1715546918        0.2459627129
 S         -3.3376127557       -1.5051974530        0.9153197280
 O         -4.3712815990       -2.5203480393        0.8932984797
 O         -2.8038696205       -1.1943816557        2.2184471016
 C         -2.0277687802       -2.0067258926       -0.1869062084
 C         -2.2074472254       -1.9258319469       -1.5531491653
 C         -1.2226291984       -2.4255631869       -2.3891966355
 C         -0.0903223431       -3.0139572011       -1.8499282409
 C          0.0774336278       -3.0843439846       -0.4764561383
 C         -0.8960167820       -2.5708049844        0.3641678344
 H         -0.7977045668       -2.5935011681        1.4386427735
 H          0.9571140933       -3.5406996761       -0.0528026289
 H          0.6660447801       -3.4193230262       -2.5028443349
 H         -1.3444250487       -2.3589298869       -3.4581897089
 H         -3.1019022230       -1.4773850618       -1.9532811423
 H         -4.9078863805       -0.4033566005       -0.2650333212
 H         -4.7772817016        1.4538997236       -1.7318913423
 H         -3.4386828143        3.3476930066       -2.5727354542
 H         -1.2460356267        3.8532433690       -1.5955460650
 H         -0.1843215850        2.8088490823        1.5116425890
 C          0.8367568452        3.5794969325       -0.2052468358
 C          0.6152381355        5.0229700052        0.1291094988
 C          1.8559046166        4.3264441035        0.5994938136
 H          2.7981645129        4.5772920057        0.1357556188
 H          1.9389835521        4.0765207573        1.6477191451
 H          0.7093342424        5.7562663431       -0.6575622211
 H         -0.1423079865        5.2558178878        0.8621792901
 H          1.0979893550        3.3225896631       -1.2253620375
