  62
        -98.94588052
 C          1.5837814703        1.4919262298       -0.2006735301
 C          1.5283793501        0.1078112998       -0.4941427903
 C          2.8269829500       -0.5579139804       -0.6741112300
 C          3.9584017201        0.1604910294       -0.5556171896
 C          5.3454311601       -0.4028566409       -0.6636226193
 C          5.8751752096       -0.8451802212        0.7076706408
 C          4.9000339092       -1.7222616511        1.4931373504
 H          5.3918691789       -1.9967857513        2.4289438305
 H          4.0196648693       -1.1306876909        1.7546097703
 C          4.4546516892       -2.9933276509        0.7566308702
 H          5.1455100793       -3.2091655809       -0.0592277497
 H          4.5016248588       -3.8345064310        1.4514595201
 C          3.0258617993       -2.9424563505        0.2119911098
 H          2.3414089192       -2.6322653905        1.0053728996
 H          2.7427606292       -3.9541926205       -0.0895813504
 C          2.8062540998       -2.0253241804       -0.9973779102
 H          3.5362930200       -2.2594589304       -1.7748732100
 H          1.8044214999       -2.2261429601       -1.3877644105
 H          6.8128209995       -1.3837148013        0.5580050610
 H          6.0877005896        0.0472586287        1.3010787509
 H          5.3360209601       -1.2470853008       -1.3503161494
 H          6.0016408403        0.3719630290       -1.0637293190
 O          3.9691069603        1.4890674993       -0.2721992194
 C          2.7863006704        2.1862048295       -0.0816055397
 O          2.9368088906        3.3955551795        0.1879849605
 H         -2.3426792297        1.4029030605       -0.1359131211
 C         -1.8666557500        1.2070990803        0.8092834690
 C         -0.5557664000        1.5923003101        1.0366815394
 C          0.0050159096        1.3445398998        2.2877089395
 C         -0.7235553008        0.7131433498        3.2762632292
 C         -2.0240216508        0.3037171901        3.0360264488
 C         -2.5954143204        0.5548469204        1.7951879387
 N         -3.9148938404        0.1674937206        1.5254500383
 S         -4.3662145301       -0.3241002291       -0.0051154619
 O         -4.5101917897        0.8194104310       -0.8716812518
 O         -5.5744197103       -1.0917130989        0.2177405677
 C         -3.0811732502       -1.4031050993       -0.6075774716
 C         -2.5219509198       -1.1697635992       -1.8457348015
 C         -1.5570186498       -2.0414038694       -2.3213804313
 C         -1.1669231102       -3.1237875795       -1.5510487913
 C         -1.7353389306       -3.3434079196       -0.3067674815
 C         -2.7048842706       -2.4786095794        0.1710272783
 H         -3.1705563609       -2.6296527995        1.1316970482
 H         -1.4213868409       -4.1826783397        0.2932504185
 H         -0.4097786403       -3.7978760296       -1.9206549112
 H         -1.1050254495       -1.8663375593       -3.2849613812
 H         -2.8473227495       -0.3096715491       -2.4099492915
 H         -4.3559889407       -0.3862464593        2.2443864881
 H         -2.5919315311       -0.2006391499        3.8028421586
 H         -0.2739948711        0.5277266796        4.2403155193
 H          1.0264126096        1.6516617896        2.4700915098
 C          0.2894109704        2.2636076600       -0.0172842303
 H          0.5718611605        3.2620936899        0.3468001399
 C         -0.4147044492        2.4095364703       -1.3500716205
 C         -1.3536363089        3.5527566805       -1.5864643906
 C         -0.0200278788        3.5235817703       -2.2699516703
 H          0.0129578715        3.3296605405       -3.3316094103
 H          0.7473550013        4.2022071801       -1.9263870300
 H         -2.2429059888        3.3777589608       -2.1737508709
 H         -1.4948761290        4.2571955004       -0.7805232606
 H         -0.6536844793        1.4520151504       -1.7996870607
 O          0.4548633600       -0.5366105200       -0.6017437206
