  62
        -98.94761541
 C         -0.7694725222       -1.2719466539        0.0544505766
 C         -1.4874863096       -0.6148484197        1.0807919707
 C         -2.4068166981        0.4435086679        0.6427736190
 C         -2.4650079099        0.7646580350       -0.6626843006
 C         -3.4265124037        1.7488809552       -1.2613662865
 C         -4.7249973647        1.0532488966       -1.6971793419
 C         -5.3329575572        0.1427620390       -0.6301643388
 H         -6.2565270890       -0.2692625738       -1.0427009875
 H         -4.6588486562       -0.6981386140       -0.4514475489
 C         -5.6364001068        0.8398718082        0.7034086569
 H         -5.6614093571        1.9206146928        0.5596945765
 H         -6.6293324049        0.5347924732        1.0403763839
 C         -4.6602575064        0.5015876045        1.8317538736
 H         -5.0829910888        0.8696286568        2.7705217861
 H         -4.5632918856       -0.5834620706        1.9209130349
 C         -3.2555203179        1.1022932133        1.6934797185
 H         -2.7324371912        0.9498459258        2.6422631722
 H         -3.3374858377        2.1756057407        1.5124515571
 H         -5.4496196570        1.8196671023       -1.9779058408
 H         -4.5124341856        0.4465699552       -2.5803272027
 H         -2.9583259863        2.1959086113       -2.1388924837
 H         -3.6468274330        2.5279067748       -0.5347798338
 O         -1.6887197400        0.1744736373       -1.6061510307
 C         -0.8469389226       -0.8782798205       -1.2815163146
 O         -0.2332211874       -1.3639818774       -2.2498616355
 O         -1.3777813137       -0.9103872103        2.3025192632
 C          0.1141510940       -2.4516444471        0.4111206053
 C          1.5237332431       -2.2561693175       -0.0878659198
 C          2.2786410854       -3.2820412459       -0.6425190075
 C          3.5739332581       -3.0458530162       -1.0686746339
 C          4.1438174575       -1.7929722251       -0.9447797669
 C          3.3983618853       -0.7599386238       -0.3859653375
 C          2.1025416133       -1.0000685440        0.0398651954
 H          1.5290191193       -0.1981143122        0.4816223834
 N          3.9350124120        0.5278033806       -0.2820081573
 S          3.3783833602        1.6429352266        0.8187218444
 O          4.3891290123        2.6799419243        0.8082615883
 O          3.1075486156        1.0472553519        2.1066132592
 C          1.8889408540        2.3004111009        0.1013852223
 C          1.8856741699        2.6222067617       -1.2409806651
 C          0.7557591021        3.2104299670       -1.7851705991
 C         -0.3404178940        3.4772521979       -0.9799006421
 C         -0.3242956964        3.1412320096        0.3642683093
 C          0.7993064323        2.5446289887        0.9124517856
 H          0.8465879928        2.2574184880        1.9515834226
 H         -1.1777066769        3.3420125697        0.9911797242
 H         -1.2128903227        3.9507690340       -1.4009039155
 H          0.7344719401        3.4620045934       -2.8333918797
 H          2.7585033285        2.4089773388       -1.8353751063
 H          4.9142317759        0.6252564770       -0.5014703859
 H          5.1526624226       -1.6085564264       -1.2806452106
 H          4.1486674869       -3.8502466925       -1.5020850658
 H          1.8523085062       -4.2662994549       -0.7458944488
 H          0.1444054542       -2.4757900097        1.5116345382
 C         -0.5250891759       -3.7336761777       -0.0860696875
 C         -0.3539343397       -5.0164174668        0.6699612510
 C         -1.6755938936       -4.3107749213        0.6810534725
 H         -2.4987111747       -4.7429943663        0.1319632362
 H         -1.9744625263       -3.7966649266        1.5831192584
 H         -0.2720413387       -5.9372828937        0.1122856275
 H          0.2399730478       -4.9908442749        1.5711894427
 H         -0.5733338712       -3.7779218339       -1.1687743804
