  62
        -98.93618779
 C         -2.3592483668       -1.1980872002        0.0021711239
 C         -3.3382381046       -0.7265132301        0.9173535360
 C         -4.3535419687        0.1938172990        0.3872152538
 C         -4.3124614401        0.5278324957       -0.9150274341
 C         -5.2250737436        1.5070309250       -1.5967761433
 C         -4.8038823676        2.9495989786       -1.2510458369
 C         -5.8329563544        3.7258088091       -0.4290389179
 H         -5.3456701392        4.6343804530       -0.0690122076
 H         -6.6535278388        4.0288677446       -1.0827211573
 C         -6.4362331789        2.9772772299        0.7633982911
 H         -6.9316209529        3.7229801990        1.3888613139
 H         -7.2152730526        2.2978544922        0.4143568989
 C         -5.4471384965        2.1866107601        1.6296426478
 H         -4.4409054171        2.5957804854        1.5369505468
 H         -5.7426066843        2.3035440191        2.6742129492
 C         -5.4106569523        0.6739264356        1.3429267153
 H         -6.3934667306        0.3449204949        0.9939508259
 H         -5.2009077070        0.1464768439        2.2781123604
 H         -3.8575156876        2.9091156222       -0.7075704425
 H         -4.6133758185        3.5034791417       -2.1716047034
 H         -5.1436042418        1.3338149838       -2.6700580717
 H         -6.2530231534        1.3244754246       -1.2913899813
 O         -3.3639726026        0.0559530168       -1.7624077883
 C         -2.3674544395       -0.8103235986       -1.3370736750
 O         -1.5816184940       -1.1387338881       -2.2500560043
 O         -3.3647405039       -1.0724747643        2.1285538393
 C         -1.3245628654       -2.1628401425        0.5574371595
 C         -0.0057464725       -1.4823572535        0.8393532762
 C          0.5058637814       -1.4315616216        2.1307919664
 C          1.7262905521       -0.8293595650        2.3821363915
 C          2.4577778567       -0.2617446846        1.3544430877
 C          1.9540680664       -0.3040743377        0.0608075259
 C          0.7344413434       -0.9168987667       -0.1893062103
 H          0.3463533310       -0.9446660917       -1.1969288553
 N          2.6748656848        0.2942961798       -0.9882706327
 S          4.2874410381       -0.1303471845       -1.1802862599
 O          4.5944596106        0.1506998434       -2.5656701970
 O          4.5390152923       -1.4794948919       -0.7283867041
 C          5.1595908092        1.0291666162       -0.1475747376
 C          6.0620198849        0.5703266955        0.7919705026
 C          6.7394766727        1.4912973884        1.5760442616
 C          6.5043376690        2.8471053603        1.4067658917
 C          5.5962622614        3.2916499033        0.4570725610
 C          4.9167435745        2.3764523874       -0.3308960388
 H          4.2045468040        2.6798214053       -1.0802525859
 H          5.4155486474        4.3467848722        0.3287593360
 H          7.0314730200        3.5620093421        2.0186302469
 H          7.4456078611        1.1477983026        2.3148407390
 H          6.2064150734       -0.4934914590        0.8927438585
 H          2.1900237732        0.2585317835       -1.8738837029
 H          3.4075938140        0.2108915504        1.5443860825
 H          2.1114115997       -0.7984167428        3.3898709373
 H         -0.0654508153       -1.8605405847        2.9410314612
 H         -1.7374345338       -2.4968361427        1.5188087585
 C         -1.1149602115       -3.3824367266       -0.3199884786
 C         -0.5588666044       -4.6316904348        0.2917410211
 C         -1.9948163977       -4.5804203489       -0.1347199918
 H         -2.2967260583       -5.1372992975       -1.0090525673
 H         -2.7530663105       -4.5286794167        0.6330055126
 H          0.1311035997       -5.2249255681       -0.2886331972
 H         -0.3435492351       -4.6175420650        1.3493753266
 H         -0.8133912334       -3.1403025853       -1.3309839409
