  62
        -98.93215398
 C          2.0908528618        1.4729365994        0.1875049992
 C          1.6926356909        0.3542275894       -0.5824071704
 C          2.7666108402       -0.5872926715       -0.9367920703
 C          4.0332435804       -0.3179165223       -0.5729347405
 C          5.2097047697       -1.2132436532       -0.8307193804
 C          5.4426559192       -2.1783255430        0.3404728798
 C          4.1809873587       -2.9076412520        0.8021716602
 H          3.4845242493       -2.1804892013        1.2257449501
 H          4.4738578083       -3.5811547619        1.6104375904
 C          3.4694148480       -3.7083374618       -0.2974280794
 H          3.1930526673       -4.6850567215        0.1050993709
 H          4.1520147278       -3.8829716825       -1.1297863795
 C          2.1850606684       -3.0627049910       -0.8215272395
 H          1.5459906787       -2.7875406803        0.0214589305
 H          1.6486211078       -3.8057234208       -1.4176770592
 C          2.3741284392       -1.8202567214       -1.7010065299
 H          1.4117854993       -1.5905781208       -2.1683643098
 H          3.0957737489       -2.0331744321       -2.4921824699
 H          5.8367816397       -1.6084849831        1.1851358496
 H          6.1980770186       -2.9070537237        0.0410121400
 H          6.0956881102       -0.5886388439       -0.9566764107
 H          5.0391183192       -1.7727826233       -1.7483763802
 O          4.3827361513        0.7955915577        0.1218120991
 C          3.4233383520        1.7044900485        0.5319159690
 O          3.8691061928        2.6669017584        1.1892617386
 O          0.5097872307        0.1366964602       -0.9488498202
 C          1.0760463926        2.5171584002        0.6447162890
 C         -0.1695709678        1.8084606713        1.1164066294
 C          0.0116950617        0.9142110515        2.1748838896
 C         -1.0270992288        0.1536704024        2.6708437300
 C         -2.2965676188        0.2699276931        2.1301637601
 C         -2.4987908283        1.1732188730        1.1001637899
 C         -1.4505357978        1.9361726421        0.6026199795
 H         -1.6682004274        2.5840488320       -0.2278763206
 N         -3.8022395583        1.2672425537        0.5307064200
 S         -3.9712321392        0.2961304035       -0.8430682397
 O         -3.0854060290        0.7380311225       -1.8991402799
 O         -5.3801883092        0.3392828144       -1.1752873195
 C         -3.5278147603       -1.3203405867       -0.2576500892
 C         -4.5249928908       -2.1190679458        0.2677961311
 C         -4.1919349616       -3.3717547959        0.7562518214
 C         -2.8729701619       -3.7982710069        0.7127639414
 C         -1.8857368714       -2.9817231078        0.1831449710
 C         -2.2086143106       -1.7257609477       -0.3079165593
 H         -1.4583072201       -1.0651611283       -0.7156590696
 H         -0.8595375717       -3.3117648685        0.1504242110
 H         -2.6109671026       -4.7731690070        1.0930489016
 H         -4.9575417120       -4.0090940152        1.1685607217
 H         -5.5350567905       -1.7432164151        0.2743925811
 H         -4.0325790876        2.2130391238        0.2519498598
 H         -3.1204977592       -0.3220709662        2.4936597304
 H         -0.8478170192       -0.5390603875        3.4787794802
 H          1.0045036516        0.8093660109        2.5926982996
 H          1.5269689731        2.9870263602        1.5355940388
 C          1.0388661733        3.6140833000       -0.4102326213
 C          0.2450565631        3.5795231402       -1.6786686312
 C         -0.0623456960        4.6072845607       -0.6270244014
 H          0.2227273747        5.6296919904       -0.8281065818
 H         -0.9668457560        4.5221940215       -0.0473713813
 H          0.7324326832        3.9115761195       -2.5847220413
 H         -0.4286962975        2.7530434106       -1.8454763508
 H          2.0453879136        4.0167737792       -0.5084996015
