  62
        -98.93899216
 C          1.9613470494        0.8859343697       -0.4259512600
 C          3.0240157495        1.1781857297        0.4625601898
 C          4.3238701794        0.5484332096        0.1750937897
 C          4.4357830492       -0.2800240105       -0.8799955703
 C          5.6258955391       -1.0365655006       -1.4323364204
 C          6.9032186092       -1.1919757907       -0.6111860106
 C          6.7617836193       -2.0686234705        0.6329809595
 H          7.6985181494       -2.0212086406        1.1925352094
 H          6.6178401792       -3.1038252806        0.3132698797
 C          5.6071765295       -1.7114107604        1.5657945097
 H          5.6192920095       -2.4200982303        2.3984291297
 H          4.6575867094       -1.8474485803        1.0437494998
 C          5.6533254096       -0.3028498903        2.1544313195
 H          6.6111052897       -0.1440461003        2.6536671094
 H          4.8666363298       -0.2370360002        2.9107923397
 C          5.4268532596        0.8410555896        1.1511820595
 H          6.3453082095        1.0967567295        0.6285985193
 H          5.1120054097        1.7247236397        1.7137596394
 H          7.3025999893       -0.2170251107       -0.3478643407
 H          7.6378367690       -1.6675372408       -1.2668261406
 H          5.8797545090       -0.5414967908       -2.3762778505
 H          5.2488432689       -2.0292791806       -1.6985770202
 O          3.3798006391       -0.5367672205       -1.7060826601
 C          2.1269119091        0.0199885996       -1.5049252500
 O          1.2773802190       -0.3289661904       -2.3468295898
 O          2.8956164497        1.9429945198        1.4552768697
 C          0.6010264195        1.5021563799       -0.1458383299
 C         -0.3351871106        0.4072605300        0.3003355104
 C         -0.2705137704       -0.0501936799        1.6135596504
 C         -1.0950514804       -1.0705672198        2.0491256906
 C         -2.0012315706       -1.6579320898        1.1832532708
 C         -2.0671763208       -1.2129925299       -0.1298153192
 C         -1.2461924507       -0.1807200800       -0.5632106695
 H         -1.2993903409        0.1444379299       -1.5900189995
 N         -3.0009486709       -1.7976073299       -1.0090097690
 S         -4.6001983309       -1.7337693498       -0.5121989288
 O         -4.8447948008       -2.7759771996        0.4529878413
 O         -5.3882088510       -1.7935434998       -1.7229195287
 C         -4.7512446606       -0.1352122897        0.2653903610
 C         -4.8417680804       -0.0432306595        1.6390918411
 C         -4.8752771002        1.2121714605        2.2249214609
 C         -4.8119278703        2.3467549704        1.4313700408
 C         -4.7238116405        2.2376240203        0.0518676908
 C         -4.6893248706        0.9854978502       -0.5390227591
 H         -4.6265713708        0.8622469901       -1.6083706891
 H         -4.6757525805        3.1223809802       -0.5624898193
 H         -4.8319057701        3.3231056305        1.8894289307
 H         -4.9448366101        1.3007182906        3.2970816209
 H         -4.8875134904       -0.9502778395        2.2189262911
 H         -2.9097625510       -1.4683248700       -1.9593558091
 H         -2.6552731106       -2.4538569797        1.5011541010
 H         -1.0335206803       -1.4128642697        3.0709238606
 H          0.4433109997        0.4030319401        2.2871242502
 H          0.7609495296        2.1784806099        0.7045584100
 C          0.0774844793        2.3047614798       -1.3187088599
 C         -1.1261151606        3.1774191299       -1.1248103498
 C          0.2256053095        3.7952726198       -1.3154107701
 H          0.4394689694        4.2926174897       -2.2496949001
 H          0.7069975996        4.2477249398       -0.4610776802
 H         -1.8421819607        3.2525258499       -1.9288232497
 H         -1.5651487104        3.2040386500       -0.1390185797
 H          0.1895886492        1.7982176797       -2.2698146399
