  62
        -98.94234756
 C         -1.9206050393       -0.6193704603        0.0196430798
 C         -2.9630400494       -0.5500207692        0.9815082597
 C         -4.0648912695        0.3714838903        0.6873797984
 C         -4.0313093995        1.1102045889       -0.4359831625
 C         -5.0626889595        2.1170073383       -0.8676458739
 C         -6.2660054594        1.5063744372       -1.5988772532
 C         -7.2365664394        0.7236576382       -0.7136078023
 H         -7.5285117095        1.3404701193        0.1369141369
 H         -8.1347536793        0.5410771974       -1.3069412722
 C         -6.6930414393       -0.6222204411       -0.2138999106
 H         -7.4543682692       -1.3941553913       -0.3466427597
 H         -5.8321420192       -0.9145427918       -0.8195746201
 C         -6.2876479094       -0.6351464992        1.2600632295
 H         -7.1693682995       -0.4728754485        1.8839564092
 H         -5.8852334593       -1.6234702789        1.4962862707
 C         -5.2271006896        0.4090066014        1.6330790683
 H         -4.8502837796        0.1742555226        2.6315605086
 H         -5.6696975297        1.4048805313        1.6517982370
 H         -6.8148426995        2.3281800866       -2.0645620143
 H         -5.8975618793        0.8585192563       -2.3976333824
 H         -5.4097897497        2.6794982193       -0.0003015346
 H         -4.5587843195        2.8057028175       -1.5493978147
 O         -3.0063843894        1.0353287279       -1.3231241723
 C         -1.9353373393        0.1681728083       -1.1321702511
 O         -1.0921195392        0.2192454072       -2.0476134511
 O         -2.9707548994       -1.2344334879        2.0391136405
 C         -0.7955833592       -1.5970667998        0.3122963812
 C          0.3776124506       -0.9180606289        0.9712746504
 C          0.9425866506       -1.4364654174        2.1305445911
 C          2.0299705505       -0.8179029165        2.7234821604
 C          2.5784462204        0.3250413629        2.1706022191
 C          2.0229393204        0.8491651414        1.0101294984
 C          0.9317345306        0.2288311905        0.4189125290
 H          0.5070932706        0.6400854993       -0.4849920815
 N          2.5815081804        2.0037504707        0.4289954370
 S          4.2316876304        1.9770138005        0.1354535071
 O          4.9380174503        2.2074731121        1.3709228269
 O          4.4525646704        2.9473043492       -0.9125422940
 C          4.5574522606        0.3257298598       -0.4528017108
 C          5.1609605206       -0.5967665791        0.3776628204
 C          5.3356143008       -1.8937039297       -0.0781755279
 C          4.9054171410       -2.2438562913       -1.3484416275
 C          4.3074586409       -1.3035306524       -2.1734436388
 C          4.1256855108       -0.0064890218       -1.7216813404
 H          3.6628859007        0.7500153374       -2.3357880514
 H          3.9726441611       -1.5770935036       -3.1609881784
 H          5.0349877411       -3.2549846417       -1.6999924763
 H          5.8018262208       -2.6266944088        0.5600831030
 H          5.4850814805       -0.2821203678        1.3557599001
 H          2.0829101804        2.3131280696       -0.3931142435
 H          3.4221566203        0.8237714735        2.6191537085
 H          2.4542239104       -1.2285456953        3.6267412310
 H          0.5142819106       -2.3228248769        2.5748179322
 H         -1.2245321692       -2.2949080389        1.0486889620
 C         -0.3900056191       -2.4216723013       -0.9027225378
 C          0.8874691810       -2.2259558221       -1.6563103779
 C          0.7100790510       -3.4361550210       -0.7928868364
 H          0.5755287412       -4.3974651316       -1.2645076752
 H          1.2623567710       -3.4684451498        0.1339861837
 H          0.8532398011       -2.3378774134       -2.7290491378
 H          1.5674650409       -1.4581523916       -1.3231935688
 H         -1.2542929690       -2.7043945921       -1.4961395275
