  62
        -98.93645286
 C         -0.9500756923       -1.2657341405       -0.5032888999
 C         -1.9723969393       -1.4571080410        0.4605806960
 C         -2.9185482519       -0.3486252717        0.6610581973
 C         -2.7646321055        0.7794235702       -0.0523714367
 C         -3.5773358678        2.0481858388        0.0120482118
 C         -5.1034524289        1.9078306709        0.1024127876
 C         -5.6892640770        0.6916948802       -0.6296370450
 H         -6.5020609322        1.0245505454       -1.2779656167
 H         -4.9298853942        0.2362629910       -1.2675629278
 C         -6.2533578954       -0.3640939875        0.3243009159
 H         -6.8123184757        0.1412486970        1.1149842951
 H         -6.9599350093       -0.9918933834       -0.2241661413
 C         -5.2201521996       -1.2945699476        0.9588679968
 H         -4.8169544705       -1.9724032850        0.2015198111
 H         -5.7340357961       -1.9129371191        1.6989153873
 C         -4.0303408926       -0.5980439467        1.6392604617
 H         -4.3421460270        0.3168783308        2.1369080760
 H         -3.6247966016       -1.2829346023        2.3888002872
 H         -5.4053507452        1.8696396728        1.1480488145
 H         -5.5298441092        2.8219851150       -0.3140598275
 H         -3.2223238775        2.6343776872        0.8638610822
 H         -3.3144104298        2.5974147932       -0.8945860214
 O         -1.7660262715        0.9266987090       -0.9650354839
 C         -0.8366276607       -0.0745384398       -1.2206763059
 O         -0.0041190778        0.2359646186       -2.0909598734
 H          1.4911956328       -0.1990831641       -0.1413587474
 C          1.8193052114       -1.0456748603        0.4408843170
 C          1.1829898443       -2.2689759531        0.2878915499
 C          1.6191044113       -3.3498045462        1.0454961059
 C          2.6748747449       -3.2075094819        1.9283941591
 C          3.3174528031       -1.9904801865        2.0661442509
 C          2.8841009793       -0.9013398627        1.3178650217
 N          3.4847549175        0.3557996232        1.4595104006
 S          3.5974888191        1.3897896275        0.1485798788
 O          3.8700754214        0.6668155165       -1.0710317431
 O          4.6110178046        2.3475077395        0.5447881629
 C          2.0338317074        2.2344755808        0.0773221109
 C          1.3612463514        2.5025481752        1.2531018998
 C          0.1825643655        3.2277885752        1.1973682871
 C         -0.2940594368        3.6803083201       -0.0234160074
 C          0.3926376185        3.4013701316       -1.1934657341
 C          1.5683938273        2.6698745341       -1.1463215413
 H          2.1179419475        2.4117553561       -2.0372231740
 H          0.0132269656        3.7375178056       -2.1448973824
 H         -1.2090001508        4.2500886074       -0.0648504953
 H         -0.3596816341        3.4372756456        2.1058439993
 H          1.7589600026        2.1350038219        2.1848001508
 H          4.3054712693        0.3860516691        2.0461737567
 H          4.1436474733       -1.8783081310        2.7514465968
 H          3.0043349893       -4.0530897604        2.5128048528
 H          1.1161198936       -4.3006309200        0.9484043010
 C          0.0327952407       -2.4095932980       -0.6766858700
 H         -0.5269768573       -3.3138834400       -0.3870833137
 C          0.4975030997       -2.6100913638       -2.1112467268
 C          1.8261679100       -2.1548165098       -2.6269165391
 C          1.5651316631       -3.6160935288       -2.4270983497
 H          1.4439797792       -4.2434111176       -3.2973493534
 H          2.0558007808       -4.1006539036       -1.5964320879
 H          1.8600900440       -1.7640288111       -3.6327826603
 H          2.4996564408       -1.6439726587       -1.9555262851
 H         -0.3301349733       -2.5445730952       -2.8111937005
 O         -2.0875486155       -2.5183256934        1.1310496479
