  62
        -98.94093855
 C         -1.9561835902       -0.2895898439        0.2197981239
 C         -3.0720400493       -0.8905566989        0.8598997773
 C         -4.3207162693       -0.1180941211        0.8587554510
 C         -4.3286689338        1.1135803261        0.3185017735
 C         -5.5400740132        1.9914569433        0.2015033313
 C         -6.2638112538        1.7622488618       -1.1328801785
 C         -6.5198821875        0.2893245637       -1.4526348634
 H         -7.0610536696        0.2519648463       -2.4005623921
 H         -5.5625982610       -0.2129457385       -1.6102244397
 C         -7.3168129183       -0.4646743186       -0.3788404799
 H         -7.8308097118        0.2467135994        0.2685843605
 H         -8.0832635138       -1.0673785723       -0.8707104501
 C         -6.4824648952       -1.4183551231        0.4784431741
 H         -7.1682074501       -2.0505650228        1.0486616636
 H         -5.8959945468       -2.0749005272       -0.1694780216
 C         -5.5310436003       -0.7545005111        1.4819363088
 H         -5.1502792833       -1.5357440062        2.1463400360
 H         -6.0805486500       -0.0288640161        2.0850143996
 H         -7.2126227496        2.3012792657       -1.1079585321
 H         -5.6539309695        2.1855941044       -1.9344616675
 H         -6.2129681726        1.7863769721        1.0319437810
 H         -5.2171281438        3.0325242985        0.2559289097
 O         -3.2276642575        1.6836596656       -0.2295089558
 C         -2.0172595911        1.0017381904       -0.3077344594
 O         -1.1141355903        1.6573666969       -0.8582101079
 O         -3.0243046263       -2.0237965447        1.4078874829
 C         -0.6646277048       -1.0894159842        0.1923079585
 C          0.4828609954       -0.2517621705        0.6925400003
 C          0.6297857237       -0.0452245912        2.0606090656
 C          1.6601378185        0.7345611429        2.5524663219
 C          2.5612211148        1.3316975681        1.6887916975
 C          2.4180956960        1.1376570828        0.3215386152
 C          1.3952375530        0.3373528089       -0.1689581702
 H          1.2845132166        0.2077459275       -1.2342400808
 N          3.3258441431        1.7530112256       -0.5635268292
 S          4.9477323662        1.3934830900       -0.3682522509
 O          5.4405788843        2.0343141586        0.8245804165
 O          5.5826022763        1.7759790433       -1.6090358201
 C          4.9838102464       -0.3783003933       -0.1702204346
 C          4.9388617280       -1.1653856751       -1.3039805627
 C          4.8837235259       -2.5423978338       -1.1628220603
 C          4.8619728477       -3.1051199531        0.1044085154
 C          4.9058937710       -2.3010279363        1.2327342276
 C          4.9666879144       -0.9230834469        1.0978467881
 H          5.0076618392       -0.2645484709        1.9494696432
 H          4.8892392333       -2.7414944176        2.2165905567
 H          4.8117015801       -4.1771600445        0.2127589586
 H          4.8527425754       -3.1707762206       -2.0385456983
 H          4.9627995465       -0.6883651303       -2.2707538773
 H          3.0572675960        1.6644568781       -1.5327783142
 H          3.3680153666        1.9487042093        2.0506819111
 H          1.7600842258        0.8850212014        3.6168008558
 H         -0.0814858136       -0.4993942570        2.7367056831
 H         -0.8363117812       -1.8983652461        0.9206857649
 C         -0.3665397145       -1.7653075731       -1.1382041556
 C         -1.4757401241       -2.3497910728       -1.9592615269
 C         -0.7159433302       -1.1616083385       -2.4641367485
 H         -0.0298316294       -1.3064761010       -3.2863102308
 H         -1.2047591078       -0.2000042566       -2.4713523942
 H         -1.3187617634       -3.3053347337       -2.4361907906
 H         -2.4859790278       -2.1970188950       -1.6081073262
 H          0.5554677334       -2.3374634158       -1.0960295472
