  62
        -98.94529015
 C         -2.4871367045       -1.1715723378       -0.0205790724
 C         -3.1559210289       -0.3332466619        0.9024789065
 C         -3.7509654892        0.8900971663        0.3496806238
 C         -3.6226429986        1.1468404970       -0.9650923889
 C         -4.1193181070        2.3875052816       -1.6480357477
 C         -3.0350908608        3.4741026335       -1.6749565378
 C         -2.3771293153        3.7247933403       -0.3177211159
 H         -1.8079899429        2.8371139936       -0.0283592839
 H         -1.6523861346        4.5313463653       -0.4511062661
 C         -3.3571011352        4.0948586086        0.8049695678
 H         -2.9433329711        4.9359879234        1.3651344235
 H         -4.3031858775        4.4250487152        0.3748076290
 C         -3.6223906036        2.9753113530        1.8132679449
 H         -2.6703267994        2.5794536037        2.1770201340
 H         -4.1450797408        3.4073950686        2.6706935776
 C         -4.4700974317        1.8029664591        1.3029147155
 H         -5.3897688520        2.1825095155        0.8539034500
 H         -4.7364653181        1.1859828333        2.1660928214
 H         -2.2557349248        3.1705503990       -2.3782472378
 H         -3.4819894795        4.4003927757       -2.0404834561
 H         -4.3885679981        2.1312705836       -2.6739522807
 H         -5.0034166090        2.7537703578       -1.1299795374
 O         -2.9717907335        0.3195596308       -1.8214695317
 C         -2.3677679090       -0.8463551571       -1.3723013201
 O         -1.7784433826       -1.4917887648       -2.2586097513
 O         -3.2421874196       -0.5908947814        2.1344993821
 C         -1.8049746456       -2.4286914283        0.4927278653
 C         -0.3145822488       -2.2728035970        0.3137302343
 C          0.4828888721       -3.1671345786       -0.3860990336
 C          1.8352166838       -2.9175253427       -0.5503970003
 C          2.4198263139       -1.7825977872       -0.0196696669
 C          1.6322641190       -0.8861765159        0.6916284539
 C          0.2815187801       -1.1404287738        0.8573956159
 H         -0.3329985354       -0.4365629874        1.4065901048
 N          2.2200457352        0.2753568405        1.2362586062
 S          2.9000114369        1.3420328631        0.1241842866
 O          2.8721788995        2.6354007246        0.7730097558
 O          2.2457983950        1.2536046785       -1.1616001263
 C          4.5876572290        0.7909612612       -0.0019778695
 C          5.3562519020        0.7837261203        1.1457908516
 C          6.6719520784        0.3563801760        1.0665233298
 C          7.1941057481       -0.0512800635       -0.1522358923
 C          6.4101494790       -0.0347864848       -1.2957498615
 C          5.0924329134        0.3902322498       -1.2232395421
 H          4.4420266140        0.4139420439       -2.0831974605
 H          6.8174795735       -0.3518577486       -2.2423022857
 H          8.2183300274       -0.3839879912       -0.2115214249
 H          7.2848584387        0.3421845625        1.9532683083
 H          4.9118471144        1.1131749132        2.0700120057
 H          1.5926937114        0.7835769376        1.8444923963
 H          3.4705704220       -1.5825283286       -0.1526473305
 H          2.4418559244       -3.6169326568       -1.1050290305
 H          0.0437632518       -4.0515557192       -0.8169738768
 H         -2.0191089970       -2.4563170353        1.5713985468
 C         -2.3790548280       -3.6711227648       -0.1511847314
 C         -2.2792536597       -4.9910011438        0.5518460274
 C         -3.6028224305       -4.2970090935        0.4452558814
 H         -4.3491098265       -4.7039982010       -0.2202613666
 H         -4.0142122812       -3.8370321982        1.3319608984
 H         -2.1184347180       -5.8793577212       -0.0397057800
 H         -1.7919637739       -5.0073734334        1.5148653644
 H         -2.3016153188       -3.6563622567       -1.2320979386
