  62
        -98.94039853
 C          1.8343309962        0.7360101731        0.6996434416
 C          2.1042988367       -0.5266831975        0.1139832863
 C          3.5093730539       -0.9675817091        0.1611324185
 C          4.4298737772       -0.2002552857        0.7698729385
 C          5.8986465392       -0.5010898930        0.8306694499
 C          6.6430326260        0.1266041009       -0.3563055792
 C          5.9977908695       -0.1593222457       -1.7124126994
 H          5.0234533114        0.3327372758       -1.7550289151
 H          6.6255531337        0.3058260555       -2.4755224783
 C          5.8252445116       -1.6508294166       -2.0320898217
 H          6.1423049736       -1.8272136625       -3.0621547604
 H          6.4738594047       -2.2455342780       -1.3878439130
 C          4.3883415570       -2.1627859034       -1.9147481272
 H          4.3438108274       -3.1574946930       -2.3663220893
 H          3.7210482821       -1.5143471281       -2.4883995322
 C          3.8371569362       -2.2827695021       -0.4881836156
 H          2.8936969090       -2.8343888204       -0.5408801006
 H          4.5338501713       -2.8542853627        0.1283786878
 H          7.6696631944       -0.2440759448       -0.3546388567
 H          6.6728531547        1.2092841794       -0.2129411209
 H          6.0439383528       -1.5796500839        0.8352225065
 H          6.2967923642       -0.0863355736        1.7582672085
 O          4.1246594226        0.9791265601        1.3677948510
 C          2.8319784001        1.4732155278        1.3473427306
 O          2.6961671975        2.5633862768        1.9370839947
 O          1.2404446885       -1.2592024305       -0.4329498315
 C          0.4431068016        1.3496299423        0.7261309500
 C         -0.5698425274        0.3458906413        1.2130059631
 C         -0.7348985506        0.1348828161        2.5777063185
 C         -1.6640774483       -0.7761171297        3.0481226156
 C         -2.4411226294       -1.5044098450        2.1639816235
 C         -2.2678111458       -1.3132332294        0.8012272357
 C         -1.3518135873       -0.3836087512        0.3311586764
 H         -1.2237580122       -0.2490932224       -0.7316556956
 N         -3.0762461505       -2.0453102398       -0.1052189056
 S         -4.6247864221       -1.4270285414       -0.2577699150
 O         -5.2982360120       -1.5564380281        1.0088730499
 O         -5.2267733087       -2.1085542172       -1.3811668931
 C         -4.3697730011        0.2963761816       -0.6432075287
 C         -4.1984272236        1.1934882296        0.3921328789
 C         -3.8912037435        2.5108634945        0.0916749638
 C         -3.7562368304        2.9046289276       -1.2310898015
 C         -3.9324771449        1.9914536899       -2.2596203378
 C         -4.2354008367        0.6719297291       -1.9649434771
 H         -4.3802920855       -0.0700691229       -2.7339420643
 H         -3.8280463594        2.3023300949       -3.2868562848
 H         -3.5107048833        3.9297463031       -1.4610621728
 H         -3.7487832440        3.2221247614        0.8895629605
 H         -4.3106786569        0.8484352592        1.4070778502
 H         -2.6561410991       -2.1183095712       -1.0218804164
 H         -3.1809297375       -2.2093401354        2.5070900538
 H         -1.7838012118       -0.9214092290        4.1110931529
 H         -0.1230747410        0.6963575767        3.2705722340
 H          0.5076971091        2.1540625186        1.4753644903
 C          0.0134885989        2.0058567548       -0.5790632118
 C          0.9849835221        2.8251486531       -1.3732009881
 C          0.4664248190        1.5331616057       -1.9260583424
 H         -0.2412807494        1.5732870822       -2.7414334343
 H          1.1331485233        0.6866231073       -1.9701899227
 H          0.6437991352        3.7500412957       -1.8123643871
 H          2.0066569992        2.8581840278       -1.0226087440
 H         -1.0030449984        2.3830520701       -0.5177623177
