  62
        -98.94453524
 C         -1.4286738197       -0.9653919796        0.0088627491
 C         -2.7146987399       -1.3219069096        0.4815129585
 C         -3.6348105394       -0.2067851695        0.7313027896
 C         -3.2157613589        1.0584512706        0.5465345910
 C         -4.0285711884        2.3024505107        0.7835505323
 C         -4.9349342380        2.6884370823       -0.3935148874
 C         -6.1588669984        1.7937251831       -0.5936220585
 H         -6.7031434286        1.7078025723        0.3473752713
 H         -6.8147890081        2.3018505841       -1.3034134081
 C         -5.8384036390        0.3933484635       -1.1348559700
 H         -6.5300667890        0.1484008347       -1.9441466604
 H         -4.8328462089        0.3883575135       -1.5617791199
 C         -5.9404174096       -0.7258762076       -0.0984819512
 H         -6.9752784297       -0.8213582275        0.2378797185
 H         -5.6552359099       -1.6649150472       -0.5797764522
 C         -5.0426744596       -0.5316342293        1.1304439791
 H         -5.4477747894        0.2504352502        1.7721514999
 H         -5.0216024901       -1.4693267099        1.6912107181
 H         -4.3366453279        2.6959832030       -1.3074517874
 H         -5.2836066076        3.7083770823       -0.2158472664
 H         -4.6317838485        2.1812674000        1.6836515621
 H         -3.3151328480        3.1124039402        0.9483672632
 O         -1.9587583387        1.3609355405        0.1271996615
 C         -1.0404974491        0.3625936804       -0.1721430495
 O          0.0572490012        0.7844130403       -0.5767303389
 H          2.1602393603       -1.2260136403       -0.8258285308
 C          1.9874179501       -1.4623874514        0.2098449789
 C          0.7503358698       -1.9156667813        0.6387668283
 C          0.5743599195       -2.2055349427        1.9902776980
 C          1.6124984095       -2.0501123441        2.8875165883
 C          2.8448939597       -1.5884163842        2.4578557589
 C          3.0283827900       -1.2912652428        1.1128808893
 N          4.2710646303       -0.8340505328        0.6508901399
 S          4.3901401409        0.2897360984       -0.5747468889
 O          4.0834858208       -0.3185206501       -1.8453987696
 O          5.7416504611        0.7986232077       -0.4438063682
 C          3.2453931915        1.6102926286       -0.2173038176
 C          2.6487741119        2.2635981000       -1.2742134670
 C          1.8115956123        3.3358160100       -1.0165384359
 C          1.5823993823        3.7323432287        0.2901552345
 C          2.1892248319        3.0659308473        1.3422605638
 C          3.0343065215        1.9982500872        1.0897569528
 H          3.5140540711        1.4676699862        1.8963290923
 H          2.0019533019        3.3708650863        2.3598421242
 H          0.9193332827        4.5596719288        0.4902198653
 H          1.3307582426        3.8482236311       -1.8345539554
 H          2.8369907019        1.9110426710       -2.2757338673
 H          4.9657085403       -0.6767081639        1.3660279802
 H          3.6588189797       -1.4632629253        3.1558750692
 H          1.4626895493       -2.2842290551        3.9305836380
 H         -0.3932480907       -2.5532128226        2.3252831675
 C         -0.4277616001       -2.0684081198       -0.2893320120
 H         -0.9438785906       -3.0061612698       -0.0391277531
 C         -0.0536852300       -2.0956448583       -1.7555279220
 C          0.5603713496       -3.3323369380       -2.3376704832
 C         -0.8432087002       -2.9506130070       -2.6986757030
 H         -1.0377288699       -2.5773469358       -3.6930574626
 H         -1.6536587105       -3.5327403871       -2.2846526237
 H          1.3357012397       -3.2206071775       -3.0804900030
 H          0.7030503791       -4.1747685188       -1.6777153141
 H          0.2912378505       -1.1371300881       -2.1263726309
 O         -3.0743764204       -2.5119275497        0.6885453572
