  62
        -98.94123662
 C          2.2260366361        0.9501484384       -0.0507685047
 C          2.9150117511        0.3833852550        1.0537667122
 C          3.7427367649       -0.7968365194        0.7772209373
 C          3.7806561557       -1.2908352043       -0.4732480140
 C          4.6196218130       -2.4547596891       -0.9129539580
 C          5.9951408878       -1.9908156586       -1.4125081965
 C          6.7047543711       -1.0276147954       -0.4608458616
 H          7.6761498049       -0.7925145732       -0.9010340104
 H          6.1392677172       -0.0942482723       -0.4120959912
 C          6.9052044997       -1.5720108905        0.9603881075
 H          7.9263099732       -1.3521286876        1.2787491996
 H          6.7922161471       -2.6567006397        0.9609403156
 C          5.9713346446       -0.9654640011        2.0094307200
 H          6.3390336427       -1.2518517510        2.9982791807
 H          6.0108413300        0.1249898142        1.9487955962
 C          4.5021704056       -1.3988984854        1.9257902528
 H          4.4401142265       -2.4888394782        1.8980444823
 H          3.9993435961       -1.0496304680        2.8323400359
 H          6.6185007222       -2.8721385474       -1.5736651537
 H          5.8623511652       -1.4878774822       -2.3732019292
 H          4.0999771744       -2.9660314760       -1.7252757327
 H          4.7369667888       -3.1451161957       -0.0797773592
 O          3.0833450334       -0.7453552915       -1.5000556410
 C          2.2933858178        0.3852560144       -1.3244164133
 O          1.7250463152        0.7571604996       -2.3690626157
 O          2.8456723292        0.8548907127        2.2201781222
 C          1.3947541515        2.1902900601        0.2339990247
 C         -0.0383513787        1.8167992091        0.5144939029
 C         -0.6614981734        2.1943385250        1.6976018931
 C         -1.9697733755        1.8213481467        1.9541596130
 C         -2.6821318736        1.0692107120        1.0374612990
 C         -2.0659485435        0.6812224096       -0.1452723457
 C         -0.7552208791        1.0557184565       -0.3994365184
 H         -0.2789882599        0.7488035369       -1.3194804791
 N         -2.7821979839       -0.0828166173       -1.0871736312
 S         -3.4444070354       -1.5297797036       -0.5434062026
 O         -2.6955456751       -2.0665538078        0.5702973756
 O         -3.5477818212       -2.3704629441       -1.7162187423
 C         -5.0812616256       -1.0676718596       -0.0160380225
 C         -5.9177844836       -0.4750795875       -0.9417940294
 C         -7.1955334704       -0.1085650035       -0.5505548588
 C         -7.6134825193       -0.3419688235        0.7513540059
 C         -6.7628788962       -0.9412364745        1.6677113154
 C         -5.4827502801       -1.3093964416        1.2830883580
 H         -4.7841589453       -1.7727507581        1.9615874793
 H         -7.0896395137       -1.1221604887        2.6791034603
 H         -8.6083648033       -0.0553686985        1.0536215088
 H         -7.8599164395        0.3572892263       -1.2603908480
 H         -5.5542613180       -0.3162921343       -1.9433288733
 H         -2.2623317670       -0.2401514985       -1.9396079038
 H         -3.7006043131        0.7748403921        1.2314209767
 H         -2.4401781544        2.1190694883        2.8787066864
 H         -0.1070718710        2.7679139883        2.4258114877
 H          1.8166400223        2.5947587203        1.1675564104
 C          1.5406821172        3.2669640042       -0.8333692496
 C          0.4286874236        3.7090368486       -1.7324566002
 C          0.8986735847        4.6079467294       -0.6311617696
 H          1.4586961204        5.4949399360       -0.8851901090
 H          0.2533339768        4.7208241985        0.2270015148
 H          0.6822807302        3.9553485144       -2.7523431578
 H         -0.5353635894        3.2371746880       -1.6280260566
 H          2.5336824091        3.2657986295       -1.2718811403
