  62
        -98.94306067
 C         -0.3204988287       -2.1191243624        0.2649945272
 C         -1.0669288754       -1.4087152448        1.2341292453
 C         -2.4148040817       -0.9848373442        0.8342593673
 C         -2.8746362437       -1.3249051941       -0.3832250249
 C         -4.1757835970       -0.8695166057       -0.9793967956
 C         -4.0229272500        0.5690591550       -1.5163926002
 C         -4.8638268778        1.6131453384       -0.7800221165
 H         -4.5051067633        2.5947228529       -1.0979463806
 H         -5.9052538093        1.5208245925       -1.0973089608
 C         -4.8303229139        1.5423539124        0.7498633055
 H         -5.5092452976        0.7606327747        1.0948751337
 H         -5.2291310787        2.4888657547        1.1211292288
 C         -3.4492312476        1.3085196131        1.3759074025
 H         -2.6630680218        1.6262382658        0.6879928167
 H         -3.3664556081        1.9344828902        2.2672265605
 C         -3.1904187181       -0.1474074481        1.8119755096
 H         -2.5863559603       -0.1419054647        2.7242727597
 H         -4.1394290634       -0.6360998643        2.0482170285
 H         -2.9681165952        0.8514009215       -1.4647785043
 H         -4.2980426719        0.5940100494       -2.5724667718
 H         -4.9651976670       -0.9191096970       -0.2325524153
 H         -4.4189583256       -1.5529190248       -1.7935534524
 O         -2.1559770102       -2.0712809428       -1.2609069648
 C         -0.8435880064       -2.4333373525       -0.9888685319
 O         -0.2723389433       -3.0276988670       -1.9231488777
 O         -0.6131242187       -1.1171192704        2.3747231703
 C          1.1424881999       -2.4047912265        0.5436580537
 C          2.0121877669       -1.5609499164       -0.3616948911
 C          3.2747896405       -1.9564523761       -0.7874318015
 C          4.0255052135       -1.1309319880       -1.6072611284
 C          3.5456102879        0.1008353660       -2.0153802493
 C          2.2843159368        0.5066627859       -1.5932938698
 C          1.5426642998       -0.3192149856       -0.7654330247
 H          0.5586467607        0.0001665792       -0.4641970324
 N          1.7361697169        1.7272134307       -2.0042037288
 S          0.5876169675        2.5374887227       -1.1071642901
 O         -0.6630115987        1.8201318114       -1.1008355274
 O          0.5531262624        3.8561005894       -1.7036411811
 C          1.2721354325        2.6504605113        0.5348923553
 C          2.3881157132        3.4488434211        0.7017524207
 C          2.9703730310        3.5372891471        1.9547773595
 C          2.4335377648        2.8239216024        3.0167147406
 C          1.3110351181        2.0323969203        2.8348366312
 C          0.7212017344        1.9448071494        1.5834017411
 H         -0.1497402398        1.3298318404        1.4218447563
 H          0.8875894622        1.4672924425        3.6498600006
 H          2.8899914212        2.8867446407        3.9919409127
 H          3.8402921859        4.1572461289        2.1001560503
 H          2.7682971401        3.9966591886       -0.1450830258
 H          2.3552130773        2.3463019417       -2.5036891679
 H          4.1300050361        0.7352560610       -2.6636491711
 H          5.0018089758       -1.4530427072       -1.9361950148
 H          3.6655545157       -2.9145181546       -0.4854935302
 H          1.3124028315       -2.0693440974        1.5787283764
 C          1.4522642933       -3.8845546218        0.4570271014
 C          2.4831469175       -4.4990936073        1.3551272201
 C          1.0290205494       -4.7769374800        1.5844035637
 H          0.6431046911       -5.7572138007        1.3486805717
 H          0.5451549072       -4.3097954654        2.4298719455
 H          3.0986520932       -5.2946589375        0.9629103582
 H          2.9882389708       -3.8519847847        2.0563068675
 H          1.3520354304       -4.2714627037       -0.5504150884
