  62
        -98.94077811
 C         -2.3194772395       -1.0555803010        0.0384085008
 C         -2.1239533298        0.1745250488       -0.6354931597
 C         -2.8016354401        1.3398296388       -0.0515240102
 C         -3.5096482001        1.2120368591        1.0842069099
 C         -4.2190060104        2.3162022892        1.8198035895
 C         -5.6164561205        2.6377418086        1.2722298794
 C         -5.6375404307        3.3673298980       -0.0715235309
 H         -6.6582557108        3.7221496377       -0.2269779210
 H         -4.9924753210        4.2448037782       -0.0167954413
 C         -5.2289588605        2.4987931477       -1.2694102306
 H         -5.2848855902        1.4442504478       -0.9901220902
 H         -5.9357669205        2.6514552172       -2.0879953706
 C         -3.8319835806        2.7911490679       -1.8168572107
 H         -3.6315607304        2.0950032976       -2.6351389904
 H         -3.8013003209        3.8051945977       -2.2215321211
 C         -2.7070419505        2.6445669186       -0.7839618607
 H         -2.7296980407        3.4765597488       -0.0803013110
 H         -1.7493587305        2.6610314786       -1.3102704907
 H         -6.1815385502        1.7064269884        1.1907016397
 H         -6.1174824507        3.2670817787        2.0112843391
 H         -3.6042271607        3.2169183993        1.8074982491
 H         -4.3224345403        1.9814801395        2.8543140796
 O         -3.6446924898        0.0210701393        1.7252718504
 C         -3.0740137494       -1.1308456907        1.2143644408
 O         -3.3066355991       -2.1543785606        1.8887389212
 O         -1.4215957799        0.3248842886       -1.6719818498
 C         -1.7087690491       -2.3730687310       -0.4194950487
 C         -0.2732732691       -2.4659479604        0.0408021113
 C          0.1276558612       -3.4376942400        0.9497239817
 C          1.4359920912       -3.4859453594        1.3993948617
 C          2.3690164610       -2.5643893593        0.9582398813
 C          1.9744894507       -1.5851696398        0.0570355509
 C          0.6679678007       -1.5490477603       -0.4051874691
 H          0.3672084404       -0.7773138907       -1.0988088194
 N          2.9144061404       -0.6211930797       -0.3855977194
 S          3.3826394701        0.5175882009        0.7747530201
 O          3.6846396303       -0.1682604186        2.0049328504
 O          2.3983027598        1.5779566506        0.8556808697
 C          4.8832358899        1.1379468810        0.0408868599
 C          6.0305055601        0.3761928614        0.1499889901
 C          7.1959293100        0.8315359815       -0.4449410600
 C          7.1940631597        2.0335642412       -1.1371837405
 C          6.0344211794        2.7867234608       -1.2384143508
 C          4.8650688296        2.3359633007       -0.6458205406
 H          3.9421590994        2.8917454405       -0.6926429908
 H          6.0355315092        3.7215280606       -1.7756826312
 H          8.1022470695        2.3864551713       -1.5997917607
 H          8.1000024802        0.2494180818       -0.3675673498
 H          5.9862163904       -0.5469434084        0.7034812205
 H          2.5429639402       -0.1010841601       -1.1717636696
 H          3.3831335110       -2.5773999589        1.3211295313
 H          1.7311038414       -4.2464556691        2.1064734320
 H         -0.6003961386       -4.1450826800        1.3199937020
 H         -2.2765106689       -3.1580541610        0.0977782116
 C         -1.8274675391       -2.6022672316       -1.9134288886
 C         -1.7611773387       -4.0029820018       -2.4397434581
 C         -3.0605498789       -3.2562801522       -2.4567692684
 H         -3.4500371590       -2.9138972127       -3.4036954585
 H         -3.8249370888       -3.5453923021       -1.7498441182
 H         -1.2557054486       -4.1766704920       -3.3771374780
 H         -1.6459837884       -4.8016247715       -1.7226414378
 H         -1.3798016193       -1.8171524217       -2.5077770189
