  62
        -98.94293371
 C         -2.6815903643       -1.2230418894        0.1229946018
 C         -2.6427028826       -0.2250106911       -0.8801492645
 C         -3.7918235045        0.6913856312       -0.9130416231
 C         -4.7947609065        0.5250461315       -0.0316934478
 C         -5.9928726743        1.4214779365        0.0829890914
 C         -5.7433640941        2.5543559646        1.0886739246
 C         -4.4221562380        3.2927816220        0.8732834783
 H         -3.5938035212        2.6089212136        1.0726822881
 H         -4.3689108138        4.0875978892        1.6204575684
 C         -4.2530154669        3.8962393063       -0.5280065654
 H         -3.8641513987        4.9116391803       -0.4270325792
 H         -5.2238449285        3.9687983009       -1.0196171169
 C         -3.2822253427        3.1354495443       -1.4330829835
 H         -2.3371078959        2.9771852408       -0.9072576270
 H         -3.0711171962        3.7594662351       -2.3055553986
 C         -3.7774217576        1.7788799180       -1.9500703519
 H         -3.0804287571        1.4441875188       -2.7239171117
 H         -4.7643020863        1.8945109340       -2.4026825142
 H         -5.7373230847        2.1287288217        2.0948436995
 H         -6.5722791015        3.2615877551        1.0242970976
 H         -6.8389218653        0.8233012442        0.4255064736
 H         -6.2257978650        1.8352636260       -0.8961458719
 O         -4.8070586028       -0.4621210514        0.9008031161
 C         -3.7481114828       -1.3476274849        1.0129631239
 O         -3.8712916392       -2.1861853181        1.9289473658
 O         -1.7010860344       -0.1032437877       -1.7061451093
 C         -1.5264404954       -2.1989290229        0.2647857521
 C         -0.2560849653       -1.4299451872        0.5367127581
 C         -0.2229081041       -0.5713150201        1.6332460820
 C          0.9086777236        0.1663105905        1.9194649694
 C          2.0330060352        0.0694117773        1.1171132784
 C          2.0158230033       -0.7912942321        0.0292562138
 C          0.8779180525       -1.5409105805       -0.2500054104
 H          0.8803095388       -2.2021829817       -1.1021828021
 N          3.1391626887       -0.8833215365       -0.8029951128
 S          4.6817992584       -0.8789610323       -0.1585048399
 O          5.5123686238       -1.4831422677       -1.1771370504
 O          4.7170347830       -1.4998638915        1.1453677917
 C          5.0912527280        0.8489963821       -0.0244028152
 C          5.6310536283        1.3362568146        1.1497662673
 C          5.9584161269        2.6808792048        1.2303719743
 C          5.7423507403        3.5100250541        0.1405154745
 C          5.2019514041        3.0045671839       -1.0325836692
 C          4.8741430082        1.6610808181       -1.1202220322
 H          4.4515873137        1.2327971924       -2.0138522479
 H          5.0339099048        3.6524512640       -1.8778664284
 H          5.9958382596        4.5563964083        0.2055809316
 H          6.3786837659        3.0755270320        2.1414760356
 H          5.7744964221        0.6565981546        1.9747621763
 H          3.0457510926       -1.5346409171       -1.5677049042
 H          2.9170218118        0.6467022215        1.3326826356
 H          0.9168625935        0.8287405852        2.7719538028
 H         -1.1036530925       -0.4907844462        2.2566558710
 H         -1.7502469623       -2.8088842134        1.1518966972
 C         -1.4538225825       -3.1077484508       -0.9438576657
 C         -0.8147731779       -4.4584848644       -0.8308780340
 C         -2.3021384502       -4.3419108457       -0.9731450383
 H         -2.7560537390       -4.6336565354       -1.9083348263
 H         -2.9184415901       -4.5410679936       -0.1084377996
 H         -0.2490796407       -4.8358138197       -1.6697303087
 H         -0.4178939557       -4.7448299660        0.1315682438
 H         -1.3384760336       -2.5609635212       -1.8726410373
