  62
        -98.92785485
 C          2.3481037505        1.3748954479        0.2586419374
 C          2.9829565330        0.4369241756        1.1107278721
 C          3.8880904379       -0.5246361946        0.4706467975
 C          4.0503045118       -0.4931275333       -0.8641494410
 C          4.9698594423       -1.3614755091       -1.6815056289
 C          4.6407393998       -2.8665440283       -1.7082516690
 C          5.3910012184       -3.6966769494       -0.6592580878
 H          5.6963346171       -4.6417894159       -1.1127639088
 H          6.3060678909       -3.1708480868       -0.3841570682
 C          4.6014627454       -4.0445914032        0.6062407496
 H          3.9114021588       -4.8617436025        0.3833175247
 H          5.3102590569       -4.4074981347        1.3537222367
 C          3.7799482794       -2.9078465336        1.2152352104
 H          3.4369000405       -3.2262696674        2.2019624827
 H          2.8797972964       -2.7431967499        0.6167617884
 C          4.5294457085       -1.5668706496        1.3400290813
 H          4.4665385140       -1.2003001270        2.3665634423
 H          5.5801890287       -1.6882552556        1.0812826889
 H          3.5642459997       -3.0055188766       -1.6075528397
 H          4.9215770856       -3.2335448548       -2.6967358549
 H          4.9129284882       -0.9668894138       -2.6979695601
 H          5.9927200894       -1.2209973716       -1.3247507358
 O          3.3949942792        0.3985101254       -1.6528622034
 C          2.5179948068        1.3401402469       -1.1269085943
 O          1.9826008366        2.0565455183       -1.9887599649
 O          2.8065290862        0.4094499210        2.3601219480
 C          1.4021809628        2.3783880485        0.9089953948
 C          0.0064458727        2.1118601798        0.4031479128
 C         -0.6035101486        2.7224552477       -0.6860219631
 C         -1.8660250295        2.3283343565       -1.0972381976
 C         -2.5494364572        1.3175374594       -0.4476578592
 C         -1.9441804554        0.6833064899        0.6289175748
 C         -0.6867755558        1.0889412039        1.0458751141
 H         -0.2159723341        0.5816417698        1.8792985246
 N         -2.6205066601       -0.3570885234        1.2944776969
 S         -3.1853295104       -1.6288253900        0.3521595201
 O         -3.2629656767       -2.7606417061        1.2505306838
 O         -2.3821988572       -1.8063955366       -0.8363930677
 C         -4.8357589195       -1.1252541740       -0.0866905600
 C         -5.2185469070       -1.0967641573       -1.4132514569
 C         -6.5119176238       -0.7098046141       -1.7289311088
 C         -7.3941148036       -0.3607356449       -0.7179315806
 C         -6.9942245859       -0.3964040765        0.6097864441
 C         -5.7035218516       -0.7837011196        0.9323302657
 H         -5.3535583584       -0.8276250072        1.9500857219
 H         -7.6829216357       -0.1235394524        1.3930212267
 H         -8.3992527741       -0.0587829588       -0.9665447325
 H         -6.8241065946       -0.6811379368       -2.7605437012
 H         -4.4954864947       -1.3692830393       -2.1656677783
 H         -2.1160197004       -0.7135881953        2.0940960375
 H         -3.5290683151        1.0077020173       -0.7731962508
 H         -2.3205613524        2.8161802434       -1.9462035348
 H         -0.0874134379        3.4809134909       -1.2459219236
 H          1.4045139354        2.0812680085        1.9697423302
 C          1.9639873167        3.7930688608        0.9024374071
 C          2.0889523403        4.6954850125       -0.2868225899
 C          1.1164400729        5.0258138814        0.8048729243
 H          1.3467083773        5.8542948198        1.4580606179
 H          0.0633430412        4.8984231195        0.6108167858
 H          2.9902575307        5.2877585142       -0.3621547836
 H          1.7356483598        4.3430557831       -1.2410390032
 H          2.7972221530        3.8483589275        1.5994824384
