  62
        -98.94305451
 C          1.9171498574        0.4119355704       -0.7640786150
 C          2.3702875546        0.1626657129        0.5545044106
 C          3.8195327239        0.2846764557        0.7597721118
 C          4.6153630139        0.6358684530       -0.2667792230
 C          6.1057422541        0.8348431559       -0.2052915705
 C          6.9165047570       -0.4605406847       -0.3467736027
 C          6.8773041800       -1.3872674795        0.8688876032
 H          7.6529590236       -2.1414571344        0.7215565115
 H          7.1394271109       -0.8217018747        1.7636161087
 C          5.5324757116       -2.0964760401        1.0806723291
 H          4.9444308388       -2.0440039375        0.1615636754
 H          5.7080674067       -3.1544303700        1.2882166670
 C          4.6970367457       -1.5411703595        2.2342179978
 H          5.2204094555       -1.7070993982        3.1784694802
 H          3.7538003214       -2.0918300216        2.2699420638
 C          4.3678613828       -0.0473061049        2.1147407843
 H          5.2540743997        0.5512811847        2.3248306916
 H          3.5978581031        0.1949661878        2.8513301178
 H          7.9557810209       -0.1760301828       -0.5270500766
 H          6.5622959515       -0.9997733123       -1.2283991214
 H          6.3648437272        1.4953338915       -1.0357366735
 H          6.3708799880        1.3312146189        0.7286914068
 O          4.1363810550        0.8814512961       -1.5161342136
 C          2.7850807322        0.7603057637       -1.7980547957
 O          2.4845399477        0.9948245904       -2.9871247169
 O          1.6090533258       -0.1372606330        1.5097409880
 C          0.4408925824        0.2996716675       -1.0904031829
 C         -0.3845234818        1.2549312503       -0.2610479996
 C          0.1372490807        2.4928254828        0.1030459235
 C         -0.6076804197        3.3825184877        0.8524334232
 C         -1.9018490968        3.0709647372        1.2291531894
 C         -2.4431695290        1.8496798387        0.8500447494
 C         -1.6830883394        0.9472437662        0.1185667079
 H         -2.1216709891        0.0036712415       -0.1618825272
 N         -3.7564439768        1.5030418576        1.2056103074
 S         -4.7584983887        0.8257316053        0.0464214641
 O         -4.4230989285        1.2861363285       -1.2807587924
 O         -6.1003583332        1.1240985346        0.5016224732
 C         -4.4957532358       -0.9301198027        0.1739845309
 C         -4.3206407640       -1.4964047326        1.4212173198
 C         -4.1696760359       -2.8706297916        1.5157318204
 C         -4.2059477329       -3.6524004080        0.3707742665
 C         -4.3877052952       -3.0688687364       -0.8735226720
 C         -4.5343166818       -1.6940191747       -0.9754112903
 H         -4.6652954524       -1.1983023571       -1.9239363714
 H         -4.4138512570       -3.6767935045       -1.7639654952
 H         -4.0899273738       -4.7220645224        0.4479772020
 H         -4.0245487143       -3.3279016118        2.4812627430
 H         -4.2961902883       -0.8600348658        2.2898969192
 H         -4.2445174518        2.2042045492        1.7443841980
 H         -2.4880875983        3.7679145676        1.8089091065
 H         -0.1806080461        4.3324328124        1.1374235190
 H          1.1427138438        2.7486182517       -0.2026552091
 H          0.3371207761        0.5988197990       -2.1447881431
 C         -0.0056241209       -1.1425754594       -0.9474295386
 C         -1.0444475745       -1.7181395529       -1.8605114966
 C          0.3899491241       -2.1260086767       -2.0064290700
 H          0.6774444013       -3.1220657090       -1.7054999737
 H          0.9489046978       -1.7451959520       -2.8493288146
 H         -1.7413626923       -2.4367578904       -1.4560098386
 H         -1.4675589054       -1.0681940243       -2.6122315088
 H          0.0137459510       -1.4796981643        0.0825958833
