  62
        -98.93907041
 C         -2.0080158583       -0.9086252452        0.0577839487
 C         -2.2855916455        0.0895729533        1.0162442407
 C         -2.3822743179        1.4772503684        0.5268720136
 C         -2.1823201122        1.7147455488       -0.7830033016
 C         -2.2663319749        3.0328973038       -1.5050751003
 C         -3.7172819747        3.4908200353       -1.7367024270
 C         -4.6606847916        3.2737799277       -0.5557566297
 H         -5.6745031373        3.5033380608       -0.8939658635
 H         -4.6438037975        2.2193896477       -0.2736687300
 C         -4.3740255876        4.1325751421        0.6734502216
 H         -4.4671253773        5.1866585586        0.4024515599
 H         -5.1456899442        3.9093928905        1.4144275417
 C         -3.0085235009        3.9245737173        1.3298724640
 H         -3.0268057047        4.4430027271        2.2931903178
 H         -2.2200295021        4.3896242091        0.7442164204
 C         -2.6540477885        2.4710413247        1.6307188270
 H         -1.7579469112        2.4558146770        2.2647270259
 H         -3.4487085255        2.0274161337        2.2416541603
 H         -3.7068153714        4.5474518547       -2.0085631447
 H         -4.1139370135        2.9269071808       -2.5841947110
 H         -1.6975568029        3.7841541586       -0.9646943717
 H         -1.7845832714        2.8889814821       -2.4747422624
 O         -1.9151860920        0.7185076610       -1.6746324438
 C         -1.7937525107       -0.6007062253       -1.2849786223
 O         -1.5169696756       -1.3912160873       -2.2085400771
 H          0.4046890827       -0.9599300346        0.8854668194
 C          0.6134561723       -1.9256662203        0.4469222245
 C         -0.4321519415       -2.8030401094        0.1877074907
 C         -0.1352174415       -4.0448276774       -0.3584079943
 C          1.1726086466       -4.3769396087       -0.6686208566
 C          2.2031436028       -3.4809362576       -0.4546643178
 C          1.9182066818       -2.2431826170        0.1123107988
 N          2.9405761769       -1.3117193772        0.3696111006
 S          2.5730255753        0.3305695494        0.2207356175
 O          1.9609556534        0.7816383151        1.4467771152
 O          1.8351936885        0.5798600435       -0.9973341781
 C          4.2202053511        1.0045249542        0.0996432317
 C          4.7280106383        1.3460806743       -1.1393347912
 C          6.0226456167        1.8350844063       -1.2216098103
 C          6.7842086158        1.9693366390       -0.0704775122
 C          6.2605129968        1.6227583554        1.1664526996
 C          4.9664880459        1.1351167585        1.2559462247
 H          4.5124269206        0.8612901357        2.1939029182
 H          6.8544433749        1.7308142544        2.0595443310
 H          7.7913463586        2.3492085749       -0.1376114534
 H          6.4304961498        2.1084397221       -2.1813793526
 H          4.0952885562        1.2296869441       -2.0048649594
 H          3.8025714579       -1.5389604555       -0.1080917803
 H          3.2180874235       -3.7326001336       -0.7221683505
 H          1.3892261501       -5.3419398413       -1.1011574511
 H         -0.9288301641       -4.7469078888       -0.5551149837
 C         -1.8335877512       -2.3459021725        0.5121331327
 H         -1.9461304336       -2.3237878569        1.6070027495
 C         -2.9120766628       -3.2321325604       -0.0744297262
 C         -3.3862335328       -4.4428378410        0.6712306049
 C         -4.2686024264       -3.2369593018        0.5621732383
 H         -5.1373725009       -3.2859346255       -0.0768311960
 H         -4.4046750092       -2.6189889501        1.4378200573
 H         -3.6538210748       -5.3234919247        0.1071530980
 H         -2.9303021436       -4.6503511286        1.6274456732
 H         -2.8660716924       -3.2775285230       -1.1568225087
 O         -2.4534823644       -0.1647485671        2.2420481171
