  62
        -98.93242362
 C          2.3109798807        0.7614430196        0.5932214797
 C          3.4049954007        0.9103358795       -0.2926410104
 C          4.6481970307        0.2066898495        0.0755610097
 C          4.6892750807       -0.5339608604        1.1950897698
 C          5.8491551107       -1.3012924103        1.7792976698
 C          6.7353152206       -2.0975995705        0.8122774599
 C          5.9999010105       -2.7013301106       -0.3930103700
 H          6.2461148705       -3.7624683706       -0.4636106799
 H          4.9205953305       -2.6265031906       -0.2486219000
 C          6.3839939405       -2.0406324108       -1.7190581501
 H          7.4659383505       -1.8923812209       -1.7362135501
 H          6.1342336605       -2.7220656909       -2.5358094600
 C          5.6917463906       -0.7103018608       -2.0119672402
 H          4.6316408705       -0.8820679808       -2.2169591002
 H          6.1309442405       -0.2956433210       -2.9224588603
 C          5.7856601806        0.3433027093       -0.8961496604
 H          6.7490029207        0.3020261493       -0.3942064204
 H          5.6733910207        1.3292629193       -1.3547599505
 H          7.5451766606       -1.4639856506        0.4535620098
 H          7.1967432206       -2.8966126304        1.3951285600
 H          6.4725358107       -0.5980143103        2.3393354297
 H          5.3993735607       -1.9807399602        2.5074466499
 O          3.6084339007       -0.6595477802        2.0173871798
 C          2.4125503907       -0.0244188402        1.7446917298
 O          1.5235227207       -0.2291903801        2.5972038598
 H         -1.4482139993        0.3002125798        0.8270460799
 C         -1.1333547393        0.1908892097       -0.2009102401
 C          0.0985332607        0.6826379096       -0.6065372902
 C          0.4865124806        0.5086713594       -1.9310686702
 C         -0.3477327894       -0.1391140907       -2.8234667301
 C         -1.5887312994       -0.6022136806       -2.4229639500
 C         -1.9826981194       -0.4381123104       -1.1003164200
 N         -3.2289272994       -0.9086099703       -0.6558644699
 S         -4.0454505493       -0.0022203501        0.5125714600
 O         -3.9243240593        1.4076988598        0.2178917698
 O         -3.6046667393       -0.4216197900        1.8195420600
 C         -5.7209782994       -0.5480047801        0.2391102501
 C         -6.1326297594       -1.7410592600        0.8027407703
 C         -7.4255252994       -2.1813514300        0.5680577904
 C         -8.2800493294       -1.4264151401       -0.2219021697
 C         -7.8532474394       -0.2303783802       -0.7791093198
 C         -6.5610084594        0.2153495498       -0.5495797500
 H         -6.1880995993        1.1426356198       -0.9539576701
 H         -8.5208650294        0.3558851998       -1.3896815399
 H         -9.2861549894       -1.7709854800       -0.4015078096
 H         -7.7618540494       -3.1089576799        1.0023926505
 H         -5.4366633594       -2.2875618500        1.4178192803
 H         -3.8388585194       -1.1844338904       -1.4134325199
 H         -2.2454047495       -1.0920267007       -3.1259997099
 H         -0.0348134695       -0.2705097008       -3.8483909801
 H          1.4457256906        0.8861129693       -2.2500217103
 C          0.9617691307        1.4286022897        0.3832832896
 H          0.4545401908        1.3797751498        1.3573152797
 C          1.0652471508        2.8870345796       -0.0257409405
 C         -0.1513252892        3.7528453597        0.0957741094
 C          1.0081261108        3.9523944897        1.0245664393
 H          1.6225948109        4.8315883197        0.9012265092
 H          0.8979166309        3.6365559799        2.0522529294
 H         -0.3317258092        4.4953704396       -0.6664955207
 H         -1.0521424492        3.3008748598        0.4866615895
 H          1.7191730107        3.0504720795       -0.8719263706
 O          3.3795622907        1.6010797293       -1.3452747305
