  62
        -98.94182819
 C         -2.3787830077       -1.0854463816        0.1326106228
 C         -3.6314139400       -0.9242977136        0.7828138181
 C         -4.5922481353       -0.0263320924        0.1345625355
 C         -4.2525860174        0.5993365713       -1.0064247706
 C         -5.1269425250        1.5314012729       -1.8005557077
 C         -5.1175156395        2.9797335780       -1.2926514430
 C         -5.8663087760        3.2138054748        0.0200497215
 H         -5.9666354731        4.2940658094        0.1425118687
 H         -6.8722639014        2.8003001515       -0.0583448894
 C         -5.1660609414        2.6397409485        1.2597102814
 H         -4.1196213794        2.4321959571        1.0232249452
 H         -5.1706623801        3.3852041584        2.0581352628
 C         -5.8089100302        1.3712909412        1.8208885134
 H         -5.2117393423        1.0318882758        2.6709451675
 H         -6.8131705262        1.5997152570        2.1844198117
 C         -5.9045493150        0.2142135934        0.8179275692
 H         -6.6838405894        0.4161889153        0.0833849441
 H         -6.1658582723       -0.6939123640        1.3666224067
 H         -4.0798826050        3.3046074802       -1.1842506892
 H         -5.5796723368        3.5984761822       -2.0654162804
 H         -6.1501157058        1.1544637220       -1.8107041276
 H         -4.7423686490        1.5229062294       -2.8228108518
 O         -3.0395522484        0.4321678788       -1.5936998917
 C         -2.0655864505       -0.3922858368       -1.0384426332
 O         -1.0059669634       -0.4118659603       -1.6929741558
 O         -3.9329354893       -1.5082786717        1.8569060983
 C         -1.3640820746       -1.9912865657        0.8104089095
 C         -0.0575365401       -1.2597365046        0.9750910435
 C          0.0867786122       -0.3419314787        2.0112504201
 C          1.2560123780        0.3808041282        2.1550596350
 C          2.3001468867        0.2125203748        1.2621533579
 C          2.1566182577       -0.6843465184        0.2125740051
 C          0.9918278902       -1.4302357544        0.0869483274
 H          0.8853460405       -2.1166835315       -0.7385243779
 N          3.2036511068       -0.8553477008       -0.7074770874
 S          4.0170532621        0.4954027217       -1.2798431752
 O          3.1886353721        1.6784526102       -1.2801020179
 O          4.5641490113        0.0897900663       -2.5566777529
 C          5.3569630976        0.6899430757       -0.1201449831
 C          6.1599368648       -0.4038602202        0.1381336112
 C          7.2108770053       -0.2673033602        1.0307564464
 C          7.4428172428        0.9546323431        1.6445704413
 C          6.6308677005        2.0446253459        1.3716882370
 C          5.5770117492        1.9139509771        0.4804210960
 H          4.9163060767        2.7325213527        0.2418717557
 H          6.8126423745        2.9942998099        1.8488188459
 H          8.2611645052        1.0582989974        2.3394404673
 H          7.8444507623       -1.1127678970        1.2453704330
 H          5.9480336209       -1.3341980219       -0.3615450602
 H          2.9702158645       -1.4777514187       -1.4678070021
 H          3.2084355700        0.7845464916        1.3581790306
 H          1.3561492363        1.0860717981        2.9661453602
 H         -0.7356238443       -0.1948245826        2.6978761975
 H         -1.7869786325       -2.1640314187        1.8132646191
 C         -1.2008436689       -3.3625888106        0.1719924567
 C         -2.3953584660       -4.1027771450       -0.3492216427
 C         -1.3438597797       -3.6144644441       -1.2978132661
 H         -0.6892974204       -4.3433955525       -1.7539534870
 H         -1.5728930387       -2.7774182926       -1.9384036598
 H         -2.4701278731       -5.1631841487       -0.1617172635
 H         -3.3439534772       -3.5860511659       -0.3316082086
 H         -0.4542856413       -3.9560276577        0.6915430568
