  62
        -98.94088930
 C         -1.7298620415        0.0921797946       -0.9191891820
 C         -2.9297255847        0.8350015196       -0.7983604417
 C         -4.1491756111        0.0512312523       -0.5439750280
 C         -4.0703666978       -1.2857890393       -0.4256863267
 C         -5.2225747648       -2.1905507535       -0.1005446369
 C         -5.3590117971       -2.3956170097        1.4148174467
 C         -5.3344631502       -1.0961602485        2.2197472195
 H         -5.4688797872       -1.3621930424        3.2704857762
 H         -4.3466448469       -0.6384833290        2.1285536894
 C         -6.4049788347       -0.0749579998        1.8104920563
 H         -6.8658892412        0.3305136035        2.7137326794
 H         -7.1917334254       -0.5705511155        1.2404683695
 C         -5.8724656860        1.1147884377        1.0099016572
 H         -6.6597718382        1.8718936043        0.9615590554
 H         -5.0233612390        1.5592549126        1.5351978468
 C         -5.4419411341        0.8098006589       -0.4302981647
 H         -6.2442317340        0.2827577270       -0.9505248643
 H         -5.2746095416        1.7655888452       -0.9353581773
 H         -4.5326169055       -3.0238626737        1.7550452317
 H         -6.2923635790       -2.9275578758        1.6080966761
 H         -6.1385675482       -1.7627218326       -0.5033465177
 H         -5.0448544578       -3.1573218427       -0.5744540365
 O         -2.9024136807       -1.9664526640       -0.5434250328
 C         -1.7151351747       -1.3012553663       -0.7893603348
 O         -0.7216058896       -2.0502285109       -0.8777303097
 H          2.0331283129        0.0689241724       -0.1899948237
 C          1.5427386341        0.8195084747        0.4107691291
 C          0.2740053763        1.2570127442        0.0606450848
 C         -0.3513606169        2.2084861411        0.8589877029
 C          0.2856465576        2.7037040607        1.9819090955
 C          1.5623582630        2.2843575034        2.3132364801
 C          2.1979670920        1.3384071914        1.5183333393
 N          3.4911179817        0.8894816634        1.8210202219
 S          4.5875569310        0.6183466831        0.5843748649
 O          5.8831783286        0.7456248708        1.2166688184
 O          4.3407739110        1.4855762408       -0.5432756834
 C          4.3362706337       -1.0828019344        0.1265808105
 C          4.4163759584       -2.0454793599        1.1130512310
 C          4.2404968148       -3.3749489291        0.7657699775
 C          3.9910571010       -3.7178615056       -0.5545438375
 C          3.9182365977       -2.7400960608       -1.5342194410
 C          4.0933617066       -1.4085700666       -1.1927202661
 H          4.0407021885       -0.6163483561       -1.9235240225
 H          3.7217442059       -3.0081660688       -2.5600325495
 H          3.8511935989       -4.7530615409       -0.8231050103
 H          4.2960638156       -4.1397150265        1.5236938245
 H          4.6158269038       -1.7407438849        2.1268554808
 H          3.9235301217        1.3394807151        2.6146179650
 H          2.0644312825        2.6859625818        3.1805340741
 H         -0.2110999792        3.4375001062        2.5988873531
 H         -1.3364954281        2.5561115546        0.5888504353
 C         -0.3735717207        0.7201970327       -1.1936195701
 H          0.2603680558       -0.0978383403       -1.5622841083
 C         -0.4062376616        1.8085598687       -2.2518269695
 C          0.8888837707        2.2665571078       -2.8501888859
 C         -0.0759316837        1.4658826171       -3.6714986255
 H         -0.6175343890        1.9643406432       -4.4614993935
 H          0.1727359901        0.4381367872       -3.8935405521
 H          1.0067307739        3.3157974474       -3.0749395846
 H          1.7983530035        1.7936963617       -2.5081564036
 H         -1.1717173664        2.5531058097       -2.0787009642
 O         -3.0093046555        2.0892659559       -0.8912542765
