  62
        -98.94213332
 C         -2.2189470304       -0.9104104684        0.1274737498
 C         -1.6382027897       -0.0890286880       -0.8665245595
 C         -2.0864071387        1.3142143523       -0.9049769784
 C         -2.9346259785        1.7583353121        0.0381838618
 C         -3.5836016775        3.1135838625        0.1859909928
 C         -2.7712445766        4.3566463222       -0.1863130661
 C         -1.2917420267        4.3060318408        0.2214092941
 H         -1.1046655874        3.4483374802        0.8714715234
 H         -1.0467758461        5.2045895302        0.7913629148
 C         -0.3441093166        4.2283755711       -0.9766402259
 H          0.6491297336        4.5534696702       -0.6569895755
 H         -0.6871319960        4.9181645820       -1.7515062453
 C         -0.1905277075        2.8288117815       -1.5666254470
 H          0.2902398219        2.1858843906       -0.8254140674
 H          0.4793357026        2.8931621317       -2.4277140668
 C         -1.5008069179        2.1526822628       -2.0058734677
 H         -1.2655682083        1.4567968733       -2.8159076782
 H         -2.2160201874        2.8835857036       -2.3766564172
 H         -3.2557461661        5.2029336321        0.3045544446
 H         -2.8419876364        4.5334031831       -1.2584284059
 H         -4.5082201675        3.1039383536       -0.4003588973
 H         -3.8753959976        3.1732877218        1.2380319329
 O         -3.3926801592        0.9510387117        1.0403205211
 C         -3.0558984401       -0.3880777586        1.1090212701
 O         -3.5541699507       -0.9978545491        2.0800499096
 H         -0.3110191107       -1.0873601312        1.9000475199
 C          0.2763733689       -1.7383974511        1.2631089994
 C         -0.3682976015       -2.5280349999        0.3184991787
 C          0.4027702580       -3.3604818798       -0.4821985519
 C          1.7829364580       -3.3661589209       -0.3691354017
 C          2.4222870785       -2.5285005920        0.5269159891
 C          1.6564083989       -1.7144297621        1.3497766796
 N          2.3212178595       -0.7811177633        2.2024340805
 S          2.2883458006        0.7531362773        1.4882294017
 O          3.0383650811        1.6170121861        2.3763401425
 O          0.9306340710        1.1798430985        1.2230051619
 C          3.1912975506        0.4812416179       -0.0170741084
 C          4.5665456307        0.6089964169        0.0236277218
 C          5.2986870907        0.3486990473       -1.1229624583
 C          4.6452631706       -0.0392863113       -2.2833874087
 C          3.2650561505       -0.1653325203       -2.3053425589
 C          2.5238725805        0.0939378293       -1.1623496688
 H          1.4488073504       -0.0061173700       -1.1579287190
 H          2.7514071504       -0.4704085493       -3.2027822792
 H          5.2142238705       -0.2457793310       -3.1762741688
 H          6.3723144807        0.4456622565       -1.1077180981
 H          5.0258296708        0.9147657758        0.9493250621
 H          1.8800491794       -0.7034617837        3.1101626005
 H          3.4970782285       -2.4903042828        0.5967273692
 H          2.3678804876       -4.0120084308       -1.0052520921
 H         -0.0780104924       -3.9924985689       -1.2107484224
 C         -1.8649231814       -2.3869830287        0.1973401986
 H         -2.3289630518       -2.7687072992        1.1186657883
 C         -2.4495246418       -3.1214831574       -0.9908523420
 C         -2.8017654128       -4.5739633972       -0.8819891432
 C         -3.8865572321       -3.5422077764       -0.9465153325
 H         -4.4746120819       -3.4642841553       -1.8485014725
 H         -4.4399974720       -3.3194955567       -0.0455159824
 H         -2.6243270233       -5.0620023281        0.0643720964
 H         -2.6495217132       -5.2079581166       -1.7422107537
 H         -2.0656039414       -2.7543488869       -1.9355792417
 O         -0.8036395599       -0.5139260080       -1.7070753697
