  62
        -98.94874019
 C          2.0499510512        1.0169713784       -0.1729416913
 C          1.1881401139        1.7666249368       -1.0066342793
 C          0.2711616286        2.6827859220       -0.3229990059
 C          0.2874187893        2.7601906979        1.0203340454
 C         -0.5980527022        3.6371158845        1.8636314076
 C         -1.9801336599        3.0265732711        2.1360922728
 C         -2.9471787866        3.0561506563        0.9513939002
 H         -3.9406171068        2.8311647473        1.3443142399
 H         -2.9800733926        4.0629859890        0.5330624468
 C         -2.6162859515        2.0420799126       -0.1523792848
 H         -1.9471211170        1.2784700532        0.2523061392
 H         -3.5306058481        1.5293970897       -0.4609329944
 C         -1.9918418657        2.6455014436       -1.4103149939
 H         -1.7513797291        1.8279249285       -2.0943570857
 H         -2.7180811350        3.2962461695       -1.9024454975
 C         -0.7096773011        3.4489507161       -1.1596840905
 H         -0.9482787559        4.4008914190       -0.6859471558
 H         -0.2360997279        3.6459855937       -2.1248754270
 H         -1.8433152302        1.9925488152        2.4646477694
 H         -2.4281667654        3.5849957647        2.9616955256
 H         -0.7134926048        4.6130092880        1.3904563922
 H         -0.0850842215        3.7704194519        2.8186106483
 O          1.1489447615        2.0417433841        1.7869751607
 C          2.0141115493        1.1210712636        1.2181320459
 O          2.7048888742        0.4867054823        2.0400393761
 O          1.1798852140        1.6654951287       -2.2645267461
 C          2.9510747237       -0.0283735097       -0.8042294487
 C          2.5303380574       -1.4004129740       -0.3335333040
 C          3.4251366076       -2.4180305437       -0.0319150355
 C          2.9616050006       -3.6405772040        0.4246623037
 C          1.6099423428       -3.8661517962        0.6052706881
 C          0.7034010125       -2.8577467353        0.2922941636
 C          1.1702570647       -1.6524442128       -0.2016613310
 H          0.4699080693       -0.8637647105       -0.4314892663
 N         -0.6774426825       -3.0594159209        0.4496782572
 S         -1.7185181271       -1.8742088556        1.0218487322
 O         -1.0120427606       -0.6877580655        1.4393293555
 O         -2.5276943327       -2.5237833265        2.0334994913
 C         -2.7657952836       -1.5036315138       -0.3743060350
 C         -4.1235593237       -1.3774043999       -0.1522581144
 C         -4.9542396057       -1.0524588258       -1.2128224593
 C         -4.4156792641       -0.8563719214       -2.4750379337
 C         -3.0519877165       -0.9912120353       -2.6840431256
 C         -2.2166553160       -1.3180313459       -1.6270113602
 H         -1.1534146500       -1.4261516318       -1.7694188890
 H         -2.6305103425       -0.8402457624       -3.6651935927
 H         -5.0597118463       -0.5985140807       -3.3007209670
 H         -6.0151793872       -0.9504394542       -1.0503986052
 H         -4.4981725820       -1.5407680573        0.8450213672
 H         -0.9192083069       -3.9502045283        0.8587846075
 H          1.2540791904       -4.8104119871        0.9889415004
 H          3.6660716051       -4.4233666006        0.6621588544
 H          4.4843735929       -2.2510313040       -0.1402572513
 H          2.7622889497        0.0384758411       -1.8869097764
 C          4.4111355579        0.2762298677       -0.5455631654
 C          5.4557524447       -0.1115682878       -1.5482331112
 C          5.0865084052        1.3294689336       -1.3704331637
 H          5.7903649395        1.9897977658       -0.8866521944
 H          4.4982603859        1.8071879738       -2.1403023024
 H          6.4189952968       -0.4399298407       -1.1878842216
 H          5.1260726258       -0.6097574753       -2.4473915809
 H          4.6640358535        0.2262954205        0.5075769160
