  62
        -98.93462488
 C         -2.5561039500       -0.4683996813        0.3896066002
 C         -2.9270264303        0.8867220884        0.1905699890
 C         -4.2369091304        1.1255923475       -0.4270978412
 C         -4.9899976101        0.0719695770       -0.7907625502
 C         -6.3650185002        0.1626884562       -1.3853869102
 C         -7.4457100501        0.1303804869       -0.2955785002
 C         -7.1900277403        1.1021717881        0.8563870289
 H         -8.0293370703        1.0126335186        1.5494810090
 H         -6.2933055602        0.7876536288        1.3952407192
 C         -7.0346576906        2.5680454577        0.4279013175
 H         -7.4438753607        2.7065602167       -0.5734447726
 H         -7.6179736008        3.1945432182        1.1060029769
 C         -5.5973811907        3.0910492581        0.4642885270
 H         -5.1514589507        2.8697102491        1.4372577872
 H         -5.6288433610        4.1787467780        0.3587989459
 C         -4.6630464707        2.5527898272       -0.6268628525
 H         -5.1277975007        2.6825293362       -1.6064103027
 H         -3.7441786408        3.1457536375       -0.6011154831
 H         -8.4085805902        0.3559030063       -0.7576001704
 H         -7.4939245799       -0.8812006727        0.1141393908
 H         -6.4443958204        1.0810521456       -1.9639779411
 H         -6.5080225600       -0.6895824545       -2.0518480594
 O         -4.5940208199       -1.2117800227       -0.6112483290
 C         -3.3760822098       -1.5233761519       -0.0144407587
 O         -3.1713905295       -2.7463651618        0.0825680724
 O         -2.1926730205        1.8549232889        0.5270776580
 C         -1.2125039799       -0.7077209504        1.0539637204
 C         -0.1082518499       -0.8426878712        0.0354384205
 C         -0.2381665098       -1.6798970622       -1.0676331887
 C          0.7940527902       -1.8008372529       -1.9805709986
 C          1.9718393401       -1.0941591225       -1.8144612793
 C          2.1140211999       -0.2578034814       -0.7153863201
 C          1.0756566799       -0.1385660107        0.2008751698
 H          1.1833063198        0.5260070301        1.0475287192
 N          3.3036290198        0.4710255890       -0.5474580808
 S          4.7537888100       -0.3417805209       -0.8575133101
 O          5.0158671999       -0.2803601022       -2.2735870402
 O          4.7072597303       -1.6658730904       -0.2799413689
 C          5.9203287698        0.6802847101        0.0192296389
 C          6.3043348299        0.3198481114        1.2970346092
 C          7.1979632697        1.1286287823        1.9813256784
 C          7.6876057395        2.2784921518        1.3802479773
 C          7.2923112493        2.6271140005        0.0971698270
 C          6.3997273795        1.8227289197       -0.5932372522
 H          6.0726301794        2.0485914086       -1.5947285224
 H          7.6774062991        3.5206670701       -0.3669864738
 H          8.3841432093        2.9053357025        1.9143209867
 H          7.5091154398        0.8588112933        2.9777155587
 H          5.9064419601       -0.5883734483        1.7207690701
 H          3.3336033897        0.9633502899        0.3348107387
 H          2.7844719401       -1.1857000229       -2.5171772392
 H          0.6814514103       -2.4558702637       -2.8318233580
 H         -1.1507825896       -2.2420264025       -1.1970029881
 H         -1.0178270101        0.2151182601        1.6237451195
 C         -1.2294740796       -1.8569182995        2.0527328615
 C         -0.5633477694       -3.1748744496        1.8139664727
 C          0.0144145105       -2.2177084185        2.8101738218
 H         -0.0678351695       -2.4482684975        3.8614348920
 H          0.9289835604       -1.7130272286        2.5365666913
 H         -1.0674301492       -4.0608511193        2.1681848736
 H         -0.0376921294       -3.3207281203        0.8833338129
 H         -2.1609877696       -1.8893115092        2.6089800116
