  62
        -98.94413524
 C          1.7309038013        1.4382219364        0.2051770415
 C          2.0241029713        0.6785760792       -0.9533451346
 C          2.8907340303       -0.4949061168       -0.7562689479
 C          3.3094150882       -0.8141355971        0.4811324459
 C          4.1542845155       -2.0057063112        0.8250232533
 C          3.2987811537       -3.2377301756        1.1521420229
 C          2.2209706725       -3.5422967281        0.1118402023
 H          1.7089406096       -4.4531197440        0.4292789876
 H          1.4780359529       -2.7429895541        0.1170900110
 C          2.7461476415       -3.7218781874       -1.3186127068
 H          3.8187971167       -3.9183531099       -1.3017051817
 H          2.2630815433       -4.5949023752       -1.7625566861
 C          2.4622320181       -2.5376791129       -2.2445430901
 H          1.4001869435       -2.2813480897       -2.1940234146
 H          2.6691535813       -2.8518187994       -3.2713069608
 C          3.2870148386       -1.2709905005       -1.9816525283
 H          4.3474113680       -1.5294078141       -1.9420966043
 H          3.1315439396       -0.5949409600       -2.8277239814
 H          2.8093126018       -3.0768719914        2.1153741274
 H          3.9626316806       -4.0984032480        1.2506993765
 H          4.7589663965       -1.7541046552        1.6980302713
 H          4.8164688850       -2.2246289784       -0.0107133945
 O          2.9727055644       -0.0895780073        1.5776108519
 C          2.2000912769        1.0545691243        1.4672275170
 O          2.0002675117        1.6383107831        2.5489299934
 O          1.5998542833        0.9412899959       -2.1121486563
 C          0.8864766607        2.7065549802        0.1946749489
 C         -0.5814012736        2.3541219417        0.2035009612
 C         -1.4142128726        2.7325274897        1.2495618711
 C         -2.7422490446        2.3407432271        1.2714261954
 C         -3.2575693220        1.5386739962        0.2686566887
 C         -2.4275610589        1.1482569313       -0.7739137444
 C         -1.1112156239        1.5786684056       -0.8172536847
 H         -0.4747393832        1.2717375468       -1.6340939691
 N         -2.9078162033        0.2379692006       -1.7388226914
 S         -3.4583433613       -1.2102351825       -1.0878953287
 O         -3.0555002770       -2.2422045334       -2.0178671666
 O         -4.8766501159       -1.1075947351       -0.8481883357
 C         -2.6136098530       -1.3881134176        0.4785537755
 C         -3.3605744739       -1.4948746079        1.6339546517
 C         -2.7078569488       -1.5683359045        2.8538804278
 C         -1.3239469376       -1.5154283590        2.8986946868
 C         -0.5866930179       -1.4112899479        1.7295292023
 C         -1.2327262318       -1.3555736495        0.5056286534
 H         -0.6765676531       -1.2749560053       -0.4161833457
 H          0.4898438719       -1.3528521823        1.7720265115
 H         -0.8099218675       -1.5490478247        3.8462436727
 H         -3.2781748726       -1.6532401186        3.7646519223
 H         -4.4352782300       -1.5090763690        1.5532927188
 H         -2.2292647005        0.0513809070       -2.4648021701
 H         -4.2782501852        1.1910120182        0.2855535779
 H         -3.3777443888        2.6459188528        2.0882622325
 H         -1.0088221876        3.3192031999        2.0605047035
 H          1.1134761508        3.2213995683        1.1373221646
 C          1.2187648057        3.6402786819       -0.9526241398
 C          0.8731656964        5.0923197490       -0.8276784936
 C          2.3061440250        4.6556037405       -0.7801084621
 H          2.9437987312        4.8753988294       -1.6231827200
 H          2.8169044183        4.6845475771        0.1715977399
 H          0.5233154367        5.6151635331       -1.7045181177
 H          0.4135444198        5.4205332238        0.0922473913
 H          1.1194765576        3.1811798651       -1.9271753589
