  62
        -98.94966516
 C         -1.4965012992       -1.0839718098        0.0250759704
 C         -2.5063819093       -0.6456481297        0.9117293002
 C         -3.0235467995        0.7080759901        0.6774658498
 C         -2.5003691396        1.4493911699       -0.3166733404
 C         -2.9564711498        2.8309774297       -0.6852029509
 C         -4.0636548898        2.7920217792       -1.7479639509
 C         -5.2010344696        1.8252555391       -1.4186215706
 H         -5.9366807796        1.9029353787       -2.2219332907
 H         -4.8145027095        0.8037572291       -1.4322228703
 C         -5.8866273697        2.0880913994       -0.0706999407
 H         -5.6584276699        3.0985218195        0.2703497590
 H         -6.9680861797        2.0286240891       -0.2097377307
 C         -5.5241574796        1.0894538798        1.0299146996
 H         -6.2185081796        1.2332502999        1.8620176695
 H         -5.6624932094        0.0703820897        0.6602348299
 C         -4.1033895696        1.2064186302        1.5966036996
 H         -4.0483668995        0.5771305305        2.4901478098
 H         -3.9075852898        2.2388677104        1.8949404193
 H         -4.4631957600        3.8009418291       -1.8657583812
 H         -3.6196472897        2.4885020289       -2.6987270908
 H         -2.0983313299        3.3779002897       -1.0801556610
 H         -3.3125203100        3.3386022199        0.2094244089
 O         -1.5189784395        1.0015497298       -1.1382300203
 C         -0.9838773793       -0.2651483900       -0.9801976199
 O         -0.0771086892       -0.5464470301       -1.7883499297
 O         -2.9488396292       -1.3525512895        1.8593667504
 C         -0.8899691289       -2.4617210896        0.2144067309
 C          0.6031087510       -2.3543900593        0.4057524609
 C          1.5065758312       -3.2627287893       -0.1327469788
 C          2.8674537512       -3.1030429190        0.0648250912
 C          3.3574436010       -2.0255997687        0.7798967008
 C          2.4610882008       -1.1170344687        1.3296218405
 C          1.0988863408       -1.3025505790        1.1656278405
 H          0.4190102207       -0.5856710990        1.6030058003
 N          2.9021386906        0.0198778416        2.0423499702
 S          2.5856634303        1.5019387813        1.3202889597
 O          3.2092612701        2.4814876617        2.1851673394
 O          1.1703612503        1.6523597310        1.1025863996
 C          3.4791145004        1.4239903010       -0.2221630903
 C          2.9277993905        0.7542637105       -1.2959821701
 C          3.6787420706        0.6283406603       -2.4555906400
 C          4.9545510805        1.1658872405       -2.5214727002
 C          5.4921038004        1.8367430710       -1.4329238804
 C          4.7513657403        1.9625509012       -0.2694781304
 H          5.1248374902        2.4768914115        0.6014178394
 H          6.4833213003        2.2573985911       -1.4863057205
 H          5.5314527405        1.0618976303       -3.4268958601
 H          3.2523513307        0.1058517700       -3.2968794899
 H          1.9296489406        0.3484766404       -1.2303465400
 H          3.8820330506       -0.0158168781        2.2911201002
 H          4.4197081009       -1.8843007185        0.9113112408
 H          3.5560199013       -3.8168599090       -0.3605650886
 H          1.1440255014       -4.0948700596       -0.7138551886
 H         -1.3314086389       -2.8520532994        1.1442135810
 C         -1.2823849087       -3.3730795201       -0.9312081789
 C         -1.4695083485       -4.8430860000       -0.7052055584
 C         -2.6592928686       -3.9641737103       -0.9429024287
 H         -3.1810461086       -4.0403088507       -1.8850580087
 H         -3.3020165887       -3.7324544702       -0.1059763888
 H         -1.1765155283       -5.5262912902       -1.4881112082
 H         -1.3123487885       -5.2201952397        0.2939914817
 H         -0.8695554488       -3.0466351603       -1.8793627590
