  62
        -98.94089750
 C          0.7321767293        1.5327897572        0.2339325347
 C          1.3686056187        0.8874158487       -0.8549007952
 C          2.4833171393       -0.0059703357       -0.4909443624
 C          2.7469010523       -0.2756962673        0.7981723179
 C          3.8296413319       -1.1834400581        1.3139508059
 C          5.1959565749       -0.4972161800        1.4513461394
 C          5.9073437648       -0.2006725013        0.1303662184
 H          6.9339296800        0.0795327129        0.3747483605
 H          5.9529002181       -1.1101654573       -0.4693194150
 C          5.2715157225        0.9288600250       -0.6924061817
 H          4.6100208912        1.5179122061       -0.0528611560
 H          6.0530213897        1.6033524323       -1.0498777334
 C          4.4857185295        0.4585605276       -1.9170379204
 H          5.1662098585       -0.0148830220       -2.6284265357
 H          4.0504877386        1.3360917468       -2.4024049414
 C          3.3487303576       -0.5229568637       -1.6007691045
 H          3.7628661875       -1.4972560894       -1.3439264411
 H          2.7247683677       -0.6230843693       -2.4922033362
 H          5.8355348677       -1.1559394423        2.0432264526
 H          5.0665715485        0.4314660736        2.0119039450
 H          3.5102987307       -1.5172169499        2.3030740938
 H          3.9247306691       -2.0513821835        0.6622495344
 O          2.0222371268        0.2632822001        1.8148851613
 C          1.0532775303        1.2166283739        1.5587998513
 O          0.5406602329        1.7116258001        2.5824135358
 O          1.0684898985        1.0328757350       -2.0666580303
 C         -0.3566041430        2.5904938743        0.1121916118
 C         -1.6651174467        2.0645759567        0.6451778868
 C         -2.4983512337        2.8669935237        1.4154486492
 C         -3.7097408161        2.3829317568        1.8745887812
 C         -4.1135106835        1.0964014667        1.5682939786
 C         -3.2816044383        0.2811538148        0.8081620160
 C         -2.0637767168        0.7681820728        0.3562382921
 H         -1.4173205577        0.1357059942       -0.2341173006
 N         -3.6482201826       -1.0381723838        0.5251878017
 S         -3.0292905739       -1.8705571029       -0.7776546728
 O         -2.9379014510       -1.0396364190       -1.9544850290
 O         -3.8892454685       -3.0298745033       -0.8932349429
 C         -1.4217701213       -2.4094605788       -0.2396529359
 C         -1.2848413607       -2.8805565772        1.0510613731
 C         -0.0539973914       -3.3672999163        1.4589884185
 C          1.0090064052       -3.3890362694        0.5696461067
 C          0.8550901176       -2.9131234004       -0.7225278401
 C         -0.3702188601       -2.4131167488       -1.1331219707
 H         -0.5228617288       -2.0142912272       -2.1240190655
 H          1.6802089859       -2.9277836953       -1.4154200692
 H          1.9624042557       -3.7810426236        0.8861817487
 H          0.0717924186       -3.7314380137        2.4659557476
 H         -2.1346666710       -2.8567834404        1.7128443092
 H         -4.5885023037       -1.3057212647        0.7721746457
 H         -5.0595108444        0.7170604514        1.9228995210
 H         -4.3481107678        3.0131930889        2.4748496756
 H         -2.1834150987        3.8690114183        1.6667615414
 H         -0.0512030727        3.4177870851        0.7767718149
 C         -0.5105002323        3.1756552054       -1.2830409533
 C         -1.5201959126        2.6815821666       -2.2701123303
 C         -1.6958854317        4.0258789139       -1.6330884340
 H         -1.5337944059        4.9062462550       -2.2366392099
 H         -2.4788474198        4.1306443111       -0.8975366705
 H         -1.2190102293        2.6272216978       -3.3052681284
 H         -2.1767462045        1.8756705886       -1.9765893953
 H          0.4430413008        3.4863076360       -1.6957738929
