  62
        -98.94316183
 C          2.5831782404       -0.0943120981       -0.3510999936
 C          2.6592028079       -1.1063069672        0.6414160153
 C          2.0766335707       -2.4057990280        0.3002641696
 C          1.5141508327       -2.5812173577       -0.9084979850
 C          0.8358715240       -3.8316149186       -1.3979635020
 C         -0.6238408423       -3.9454430127       -0.9362367317
 C         -0.8115763395       -4.3301568513        0.5323450550
 H         -1.8557445283       -4.6256009622        0.6530971352
 H         -0.1964274549       -5.2013858129        0.7616689079
 C         -0.5039703932       -3.2002481508        1.5249806394
 H         -0.5225381790       -2.2410874834        1.0017170814
 H         -1.2886223867       -3.1639063778        2.2850512667
 C          0.8259957750       -3.3437508024        2.2656886319
 H          0.9623531611       -2.4587228513        2.8924611094
 H          0.7891650032       -4.2194522759        2.9186091680
 C          2.0542536911       -3.4699212263        1.3561849676
 H          2.0827370263       -4.4577687900        0.8965133226
 H          2.9485866973       -3.3428088962        1.9717090825
 H         -1.1209223388       -2.9900085532       -1.1258511581
 H         -1.1057015124       -4.7052777474       -1.5565492191
 H          1.3955488233       -4.7097849942       -1.0739235041
 H          0.8526096591       -3.7889656743       -2.4892225582
 O          1.5129799962       -1.6105129242       -1.8569745009
 C          2.0001583584       -0.3364086668       -1.5955032353
 O          1.8714785260        0.4448456977       -2.5605662025
 O          3.1946617956       -0.9244459907        1.7690577677
 C          3.0354150274        1.2899198473        0.0845024207
 C          1.8705897770        1.9630438235        0.7758758831
 C          2.0076743313        2.5451624090        2.0300717041
 C          0.9073855380        3.0704494504        2.6852546176
 C         -0.3529065664        2.9885055264        2.1216204383
 C         -0.4973625516        2.4157561339        0.8625532289
 C          0.6163661593        1.9474753909        0.1835664688
 H          0.4838454653        1.5215970592       -0.7998311959
 N         -1.7560227880        2.2812146479        0.2574088194
 S         -2.0415469480        0.8591678425       -0.6196810310
 O         -1.2975762586       -0.2387949635       -0.0501991761
 O         -1.8320127728        1.1374621391       -2.0187099439
 C         -3.7859788824        0.6308496282       -0.3215003748
 C         -4.6894280859        1.4039093526       -1.0267338401
 C         -6.0432014469        1.2498815790       -0.7736799001
 C         -6.4687432039        0.3305527284        0.1740703036
 C         -5.5506005401       -0.4399617839        0.8713638902
 C         -4.1947375894       -0.2892498258        0.6247808487
 H         -3.4433007809       -0.8694226322        1.1363865992
 H         -5.8836220456       -1.1568302230        1.6043806943
 H         -7.5229188685        0.2117876424        0.3682718618
 H         -6.7599330955        1.8447244539       -1.3164122889
 H         -4.3112682624        2.0958401416       -1.7612850597
 H         -2.5232576513        2.5072644206        0.8755007385
 H         -1.2185217799        3.3576168418        2.6503574074
 H          1.0273673704        3.5192698955        3.6595598089
 H          2.9784406080        2.5594912942        2.5026711502
 H          3.8180757502        1.1243543566        0.8385659167
 C          3.6013740066        2.1699387068       -1.0089449566
 C          4.5521867563        3.2678616102       -0.6387562562
 C          5.0515273591        2.0574441358       -1.3676112556
 H          5.3301355525        2.1522078517       -2.4060556213
 H          5.6458836434        1.3405111817       -0.8201293821
 H          4.4902308933        4.2018719890       -1.1754089826
 H          4.8151167239        3.3741538921        0.4026476387
 H          2.9036668500        2.3562445564       -1.8149830473
