  62
        -98.93649841
 C         -1.8153927109       -0.6610198585       -0.1760053426
 C         -2.9256399303       -0.9075814438        0.6669596729
 C         -4.1992307209       -0.2613640267        0.3015341268
 C         -4.2424676498        0.5176360006       -0.7941797158
 C         -5.4082515429        1.2877720575       -1.3610662690
 C         -6.7588389602        0.5568403309       -1.4113293136
 C         -7.7821170740        1.1005209355       -0.4127136994
 H         -7.6945656017        2.1886593145       -0.3831103283
 H         -8.7847437923        0.8646654388       -0.7763889036
 C         -7.6633369113        0.5456512562        1.0056987595
 H         -8.3489522478        1.1121029078        1.6403706586
 H         -7.9965400662       -0.4944350219        1.0157560717
 C         -6.2626905247        0.6093018770        1.6182042151
 H         -6.3725271149        0.5821704354        2.7044401306
 H         -5.7802646299        1.5546080329        1.3719248955
 C         -5.3589807053       -0.5640792167        1.2108211964
 H         -5.9608733966       -1.3592198446        0.7614528745
 H         -4.9019480608       -1.0018168837        2.1036584293
 H         -6.6089628702       -0.5106026005       -1.2572482992
 H         -7.1683252188        0.6836833722       -2.4148469237
 H         -5.5119910581        2.2203485648       -0.8006688573
 H         -5.0990441058        1.5660689838       -2.3711836321
 O         -3.1433363668        0.7401128050       -1.5692338313
 C         -1.9117230884        0.1726935411       -1.2888970862
 O         -1.0169685963        0.4803854246       -2.0995315462
 O         -2.8567659361       -1.6410130725        1.6894526309
 C         -0.4865772440       -1.3027995122        0.1874620638
 C          0.4546851480       -0.2250634097        0.6636431847
 C          0.3997821144        0.1972461651        1.9886809667
 C          1.2315039112        1.2024921372        2.4469785362
 C          2.1318522192        1.8134622659        1.5911285661
 C          2.1862862085        1.4047904094        0.2658603262
 C          1.3623080649        0.3846242087       -0.1891101503
 H          1.4068878952        0.0878128595       -1.2250103218
 N          3.1077348313        2.0212339097       -0.6105495724
 S          4.7221839498        1.7326157687       -0.2690435049
 O          5.0690512188        2.4064889316        0.9562250438
 O          5.4540555863        2.1308798532       -1.4498326657
 C          4.8157472479       -0.0340649173       -0.0448242582
 C          4.5770468722       -0.5681036390        1.2055845651
 C          4.5616593508       -1.9458951855        1.3516551795
 C          4.7830043636       -2.7608304590        0.2523319111
 C          5.0242652762       -2.2083058761       -0.9961952441
 C          5.0338166818       -0.8315975137       -1.1503915474
 H          5.2193795357       -0.3610288473       -2.1027884593
 H          5.2003691398       -2.8448298120       -1.8486339796
 H          4.7675737567       -3.8330383066        0.3688278182
 H          4.3738422121       -2.3777546598        2.3215378208
 H          4.4144207334        0.0983715810        2.0364881522
 H          2.9240762749        1.8054564265       -1.5806168494
 H          2.7965336461        2.5921282664        1.9291768812
 H          1.1782066579        1.5159638179        3.4786118388
 H         -0.3121819714       -0.2697161088        2.6546902463
 H         -0.7081410736       -1.9594628761        1.0391025388
 C          0.0824954069       -2.1387680765       -0.9403933010
 C          1.2507522822       -3.0353225601       -0.6608561640
 C         -0.1018791578       -3.6252228834       -0.9207840008
 H         -0.2727194647       -4.1339406785       -1.8576923965
 H         -0.6435800593       -4.0508058431       -0.0890039193
 H          2.0140022218       -3.1391507783       -1.4164958491
 H          1.6297996703       -3.0538260505        0.3495621993
 H          0.0387571696       -1.6482772798       -1.9050245414
