  62
        -98.93362881
 C          0.9453118806        1.9623574222       -0.4264772777
 C          1.2818039634        0.6213064964       -0.7252373033
 C          2.6012222843        0.1517780701       -0.2486173237
 C          3.4098544339        1.0039115489        0.4042789641
 C          4.7800585491        0.7574854164        0.9848491455
 C          5.7614652990       -0.0578614529        0.1287670623
 C          6.0302026621       -1.4603243864        0.6779966780
 H          7.0014722270       -1.7986513317        0.3098932220
 H          6.0988231940       -1.3988454237        1.7661590615
 C          4.9960766823       -2.5180143345        0.2959807423
 H          5.1052505336       -2.7628830815       -0.7626054930
 H          5.2245881400       -3.4225254735        0.8643920258
 C          3.5393476932       -2.1284329910        0.5544019723
 H          3.4471038067       -1.6074935313        1.5065620798
 H          2.9554100115       -3.0466933261        0.6361747418
 C          2.9221733629       -1.2823694604       -0.5685781358
 H          3.5627282308       -1.3119345528       -1.4543949937
 H          1.9649295287       -1.7166742630       -0.8719200062
 H          5.4013400309       -0.1135909453       -0.8971278466
 H          6.7099890925        0.4814934707        0.1081346015
 H          5.1897430949        1.7531412647        1.1704223658
 H          4.6608408214        0.2850163229        1.9632294142
 O          3.0456254411        2.2937419159        0.6627093466
 C          1.8210263527        2.7966584950        0.2718781165
 O          1.6332003448        3.9893228501        0.5873873642
 O          0.5344808395       -0.1674346798       -1.3574325031
 C         -0.3799295731        2.5936612506       -0.8246478105
 C         -1.4283250393        2.2790619661        0.2103214972
 C         -2.0434397255        3.3006865916        0.9251482108
 C         -2.9758077509        3.0125731674        1.9056112685
 C         -3.3291248071        1.7023414858        2.1727252961
 C         -2.7220019918        0.6736900586        1.4619196940
 C         -1.7671042031        0.9634173762        0.4989551004
 H         -1.2848845016        0.1585234588       -0.0333673636
 N         -3.0574667779       -0.6699253105        1.6987025019
 S         -3.4138016605       -1.6243196104        0.3616516094
 O         -3.9218816548       -0.8207212254       -0.7255002351
 O         -4.3191166962       -2.6346311044        0.8737592537
 C         -1.8931771706       -2.4261357624       -0.0867132782
 C         -1.1665651230       -3.0506022711        0.9074355705
 C         -0.0263889139       -3.7542740993        0.5581028666
 C          0.3603689969       -3.8261884885       -0.7721250222
 C         -0.3795198417       -3.1905377029       -1.7561748659
 C         -1.5187893304       -2.4815298262       -1.4128034559
 H         -2.1139669869       -1.9608484584       -2.1454288081
 H         -0.0689546704       -3.2335814825       -2.7875736549
 H          1.2468865798       -4.3783069558       -1.0444656352
 H          0.5559556991       -4.2442448915        1.3223645091
 H         -1.5022020092       -2.9757577124        1.9286355741
 H         -3.7463620604       -0.8049573952        2.4255132950
 H         -4.0670996613        1.4742064272        2.9273713559
 H         -3.4396685483        3.8150836942        2.4590523092
 H         -1.7709341426        4.3256429605        0.7191256724
 H         -0.1972364718        3.6794691290       -0.7885109753
 C         -0.7948597971        2.2611702508       -2.2513626944
 C         -1.9817013292        1.4309795726       -2.6282891815
 C         -2.0107707604        2.9129991205       -2.8420093035
 H         -1.9600833968        3.2976314509       -3.8495876124
 H         -2.6284377124        3.4983442495       -2.1768295232
 H         -1.8772062409        0.7903471271       -3.4917027382
 H         -2.6062805534        1.0068428388       -1.8573833550
 H          0.0675396560        2.1726171748       -2.9050776407
