  62
        -98.94043941
 C         -0.7448159753       -1.2660707298        0.7743477762
 C         -1.4811100436       -1.1448200814       -0.4277521818
 C         -2.3534778628        0.0334456942       -0.5297131005
 C         -2.3638154302        0.9429840424        0.4602430993
 C         -3.1212849650        2.2453063846        0.4813672288
 C         -4.6587582503        2.1464733401        0.4927789237
 C         -5.3080286039        2.2146614612       -0.8947618362
 H         -6.2141321947        2.8205484019       -0.8295979072
 H         -4.6310289453        2.7350569170       -1.5737418967
 C         -5.7120210652        0.8707318561       -1.5079418207
 H         -6.6372138855        0.5283139971       -1.0388046994
 H         -5.9216362657        1.0363000418       -2.5669183495
 C         -4.6877039815       -0.2566646930       -1.3769174403
 H         -5.0050446304       -1.0817166507       -2.0177089513
 H         -4.6921267666       -0.6400556677       -0.3538268708
 C         -3.2419277680        0.1409311863       -1.7338197565
 H         -2.8355931703       -0.5454494135       -2.4798973783
 H         -3.2048621795        1.1482305447       -2.1473894192
 H         -4.9602092398        1.2365508480        1.0107703453
 H         -5.0241515554        2.9904908746        1.0799488816
 H         -2.7931280597        2.7581192482        1.3880883637
 H         -2.8018380839        2.8449326797       -0.3751904558
 O         -1.6118312359        0.8057765041        1.5873791130
 C         -0.7872816286       -0.2924269052        1.7706193764
 O         -0.1478155740       -0.2824643742        2.8419222430
 H          1.5137298984       -0.2375114180        0.2159072308
 C          1.8429452478       -1.0870550283       -0.3647317878
 C          1.2865163256       -2.3347904409       -0.1132502584
 C          1.7313217091       -3.4207296215       -0.8550146423
 C          2.6854256512       -3.2455131771       -1.8432315743
 C          3.2016372208       -1.9930672399       -2.1209202996
 C          2.7716402666       -0.9019008944       -1.3738716144
 N          3.2730468200        0.3879507229       -1.6051798163
 S          2.2623392251        1.7094109197       -1.4227253243
 O          0.9056316343        1.4197613875       -1.8259574437
 O          2.9261289188        2.7654863297       -2.1606657880
 C          2.3276279874        2.0971472326        0.3125719492
 C          1.1682652786        2.4920485192        0.9487389590
 C          1.2151764244        2.8121007258        2.2955620755
 C          2.4190098348        2.7376274988        2.9778208431
 C          3.5775480784        2.3489024033        2.3224707684
 C          3.5365242285        2.0262280337        0.9757251980
 H          4.4143220964        1.7131389578        0.4355124068
 H          4.5107284093        2.2906665726        2.8593019608
 H          2.4498795211        2.9792791697        4.0284499246
 H          0.3106489650        3.1003666623        2.8064821986
 H          0.2488660584        2.5179023871        0.3838346493
 H          3.8755769052        0.4789420808       -2.4101943866
 H          3.9257960839       -1.8561482512       -2.9094581321
 H          3.0192010761       -4.0957167231       -2.4186203844
 H          1.3230171888       -4.4006815005       -0.6700015522
 C          0.2248914885       -2.4203271209        0.9576613744
 H          0.7091151225       -2.2593014782        1.9322721338
 C         -0.5064154366       -3.7452287663        0.9853068522
 C          0.0586778117       -4.9025855619        1.7513507461
 C         -1.1550947436       -4.1873333459        2.2614643768
 H         -2.1112051665       -4.6859444884        2.2077197683
 H         -1.0470676389       -3.5419083504        3.1211777141
 H         -0.0660335218       -5.8968239300        1.3495508908
 H          0.9916247130       -4.7497208007        2.2723376270
 H         -1.0324361215       -3.9485304213        0.0598223982
 O         -1.4131207653       -1.9744231019       -1.3725035336
