  62
        -98.93731693
 C         -1.8542508468       -0.3888087172       -0.0621622800
 C         -2.9392563381       -0.6421801031        0.8145229276
 C         -4.1720708633        0.1127776163        0.5587524033
 C         -4.2025808119        1.0148253072       -0.4384201298
 C         -5.3540505501        1.9135803988       -0.8041248096
 C         -6.6233014971        1.2136463650       -1.3274930681
 C         -7.6770169819        0.9269254142       -0.2505209200
 H         -8.6667240040        1.1265448273       -0.6664193117
 H         -7.5368820794        1.6281975954        0.5730505887
 C         -7.7026259427       -0.5041317003        0.2951946593
 H         -8.2036860418       -1.1522858920       -0.4274818431
 H         -8.3038907159       -0.5029600692        1.2069523324
 C         -6.3405505976       -1.1273968091        0.6010302025
 H         -5.8507882054       -1.4150128986       -0.3323031674
 H         -6.5064568862       -2.0508306323        1.1593618015
 C         -5.3781072374       -0.2176258375        1.3890802827
 H         -5.0130618428       -0.7403295349        2.2753647169
 H         -5.8837997625        0.6916924450        1.7104966607
 H         -6.3454642052        0.2951516685       -1.8438308333
 H         -7.0676947963        1.8791448416       -2.0692985918
 H         -5.6097705708        2.5259971194        0.0635774588
 H         -4.9683550780        2.5791159724       -1.5791831617
 O         -3.1282027650        1.2522643368       -1.2381857703
 C         -1.9372891316        0.5574080501       -1.0835186430
 O         -1.0591955838        0.8754203425       -1.9086686808
 H          1.3369034408        0.2889134641       -1.1726349735
 C          1.3729310832        0.4482673441       -0.1065163876
 C          0.4733696722       -0.2099923490        0.7184043320
 C          0.5213391413        0.0373605286        2.0870904040
 C          1.4471679849        0.9183567094        2.6153745035
 C          2.3411463388        1.5766415901        1.7885619082
 C          2.2919756142        1.3447108074        0.4209452294
 N          3.2049347206        2.0111169090       -0.4270961594
 S          4.8134958448        1.5941617482       -0.2126702296
 O          5.2710361466        2.1234130111        1.0468823418
 O          5.5041944364        2.0614886316       -1.3930024793
 C          4.8012157626       -0.1883121454       -0.1607961752
 C          4.6364284544       -0.8280375735        1.0512294321
 C          4.5335084552       -2.2097245979        1.0687906785
 C          4.5959594827       -2.9233507857       -0.1179286445
 C          4.7659841786       -2.2657153261       -1.3266245092
 C          4.8622241358       -0.8840123949       -1.3517133711
 H          4.9971075870       -0.3341405329       -2.2695250076
 H          4.8194024661       -2.8240106059       -2.2476623663
 H          4.5118802204       -3.9985579606       -0.1013733626
 H          4.4012244851       -2.7235034424        2.0073594926
 H          4.5974774070       -0.2384596950        1.9522411592
 H          2.9597474912        1.9261615029       -1.4038005660
 H          3.0780987553        2.2593753922        2.1799879427
 H          1.4734648182        1.0963109146        3.6797804822
 H         -0.1850917329       -0.4658767432        2.7321596184
 C         -0.5633736166       -1.1572012189        0.1685885521
 H         -0.8019830217       -1.8878348082        0.9528483605
 C         -0.0966429164       -1.9000430303       -1.0666186028
 C          1.0178258267       -2.8939805286       -0.9370601859
 C         -0.3807501591       -3.3650739999       -1.1964536704
 H         -0.6213897752       -3.7571480635       -2.1732917919
 H         -0.9173115038       -3.8438228275       -0.3906255099
 H          1.4335024553       -3.0464649872        0.0472873334
 H          1.7425990763       -2.9626600377       -1.7334287575
 H         -0.1430484104       -1.3059864399       -1.9708655699
 O         -2.8777628539       -1.4605062897        1.7699240339
