  62
        -98.94322587
 C          2.0070616896        1.1169861096        0.1905733606
 C          2.6196085196        0.2781821892        1.1581763803
 C          4.0274136397       -0.0595388105        0.9298262903
 C          4.6613479898        0.4301325901       -0.1511256794
 C          6.1070577199        0.2123209005       -0.5064640693
 C          6.3780670802       -1.0996516391       -1.2549548198
 C          6.2781132102       -2.3656006495       -0.4031839805
 H          6.7004517204       -3.1824485892       -0.9918020408
 H          6.8970300101       -2.2529088799        0.4875594097
 C          4.8468390702       -2.7410147599        0.0057375992
 H          4.1343295502       -2.2092865897       -0.6294752207
 H          4.6879209304       -3.8086636299       -0.1623694114
 C          4.5103536200       -2.4586226807        1.4700806392
 H          5.1280550400       -3.0871896809        2.1155293590
 H          3.4645351300       -2.7286449909        1.6383569290
 C          4.6964495497       -0.9949267508        1.8910961000
 H          5.7574663297       -0.7600465007        1.9742440702
 H          4.2292727195       -0.8575013314        2.8693767700
 H          7.3903821702       -1.0397779888       -1.6612394997
 H          5.6857196303       -1.1715144288       -2.0969596800
 H          6.3958571298        1.0433081008       -1.1536227088
 H          6.7152742797        0.2486138201        0.3978789808
 O          4.0403414498        1.2242211205       -1.0597579991
 C          2.7005861697        1.5681779602       -0.9330967491
 O          2.2803668398        2.2719727606       -1.8710343188
 O          2.0159047695       -0.1573116014        2.1756801100
 C          0.5493756496        1.4759702393        0.4246380006
 C         -0.3528632002        0.5860781595       -0.3958057700
 C         -0.5136136000        0.7633285101       -1.7657059499
 C         -1.3612937898       -0.0614659396       -2.4833098004
 C         -2.0705487098       -1.0693571200       -1.8532913010
 C         -1.9122658799       -1.2568490507       -0.4871580011
 C         -1.0580311801       -0.4316819009        0.2311233894
 H         -0.9274688503       -0.5890072114        1.2936364894
 N         -2.6628252499       -2.2593288911        0.1634266183
 S         -4.3280738699       -2.0769255513        0.0454292282
 O         -4.8784962799       -2.7837377519        1.1798345078
 O         -4.7645307696       -2.5219538307       -1.2532903821
 C         -4.5793115802       -0.3184970814        0.2089566390
 C         -4.8010675001        0.4500250491       -0.9155149907
 C         -4.8938033603        1.8257529390       -0.7780026201
 C         -4.7603977506        2.4058531785        0.4735405502
 C         -4.5439367206        1.6193522380        1.5948881399
 C         -4.4465001804        0.2438897580        1.4631583493
 H         -4.2825451304       -0.4004232723        2.3123496790
 H         -4.4444207308        2.0740267575        2.5677568301
 H         -4.8251251007        3.4773796684        0.5778081507
 H         -5.0627619403        2.4400780594       -1.6474701898
 H         -4.8999356699       -0.0398503704       -1.8699638909
 H         -2.3992909200       -2.3853915015        1.1306963383
 H         -2.7463685896       -1.7112387899       -2.3952876614
 H         -1.4739163597        0.0838969108       -3.5469745804
 H          0.0480784399        1.5376915405       -2.2639239595
 H          0.3695360794        1.2406138587        1.4824184904
 C          0.2323885894        2.9411508793        0.2007092112
 C         -1.0684019908        3.4772875689        0.7172152513
 C          0.2196680891        3.8753979888        1.3714596916
 H          0.5829386690        4.8821054189        1.2292282922
 H          0.4486318790        3.4637815883        2.3437183915
 H         -1.5921853008        4.2109421191        0.1247884415
 H         -1.7167928307        2.7904728085        1.2405417509
 H          0.6014352195        3.3277148598       -0.7395210786
