  62
        -98.94453555
 C         -1.4340126399       -0.9692163718       -0.0385555375
 C         -2.7209359170       -1.3525823170        0.4092954783
 C         -3.6499922135       -0.2547328585        0.7088527635
 C         -3.2288380053        1.0167981115        0.5792592466
 C         -4.0831408555        2.2296238087        0.8066772211
 C         -4.7673832435        2.6781156671       -0.4921747821
 C         -5.4711763675        1.5468049177       -1.2416056182
 H         -5.9444847400        1.9849845374       -2.1230249171
 H         -4.7226929802        0.8359552159       -1.5991966989
 C         -6.5257524402        0.7975914633       -0.4151590037
 H         -6.8141345899        1.3969544709        0.4491440458
 H         -7.4195707351        0.6620834995       -1.0278644862
 C         -6.0932030671       -0.5927321317        0.0543735756
 H         -5.7157378552       -1.1656347887       -0.7964905361
 H         -6.9767522734       -1.1138920682        0.4327063076
 C         -5.0342929641       -0.6229915960        1.1638008540
 H         -5.3512224757        0.0143234290        1.9918658033
 H         -4.9657452957       -1.6518997247        1.5291180268
 H         -5.4891384219        3.4604279236       -0.2503360906
 H         -4.0099993054        3.1060638272       -1.1527740295
 H         -4.8310542986        2.0046489753        1.5644586302
 H         -3.4439990464        3.0369595964        1.1674263519
 O         -1.9754207470        1.3460956943        0.1770205691
 C         -1.0476711417        0.3668521797       -0.1521130548
 O          0.0540035887        0.8099281491       -0.5207487114
 O         -3.0745638132       -2.5538941132        0.5548153134
 C         -0.4218548854       -2.0519607574       -0.3723484066
 C          0.7409526048       -1.9304896037        0.5797155956
 C          0.5406446000       -2.2610076370        1.9184698777
 C          1.5616697114       -2.1308620868        2.8389546855
 C          2.8008846509       -1.6549411816        2.4460972095
 C          3.0094253593       -1.3196164813        1.1138129902
 C          1.9855342173       -1.4651836302        0.1870081644
 H          2.1775449024       -1.2000718197       -0.8382680474
 N          4.2607773119       -0.8508524609        0.6890448973
 S          4.4093395528        0.2877182056       -0.5195215735
 O          4.1332384997       -0.3052438032       -1.8043807849
 O          5.7572716955        0.7942989553       -0.3496810110
 C          3.2558302458        1.6035798328       -0.1744801821
 C          2.6644692171        2.2536308347       -1.2362936768
 C          1.8199979905        3.3216520542       -0.9853091689
 C          1.5787233011        3.7172442331        0.3194498566
 C          2.1804378742        3.0540565729        1.3765207875
 C          3.0324598212        1.9904162050        1.1308463400
 H          3.5090205432        1.4615860533        1.9405368346
 H          1.9834001111        3.3583300104        2.3924778742
 H          0.9097252658        4.5410677099        0.5141237799
 H          1.3428368758        3.8314988502       -1.8071039639
 H          2.8626313823        1.9020322606       -2.2363038992
 H          4.9383377941       -0.7039849442        1.4224917048
 H          3.6010488872       -1.5485616252        3.1627984055
 H          1.3928817937       -2.3956012343        3.8717786580
 H         -0.4325640419       -2.6191626920        2.2251045310
 H         -0.9340048953       -3.0036850156       -0.1717948632
 C         -0.0258248604       -2.0102537982       -1.8323116083
 C          0.6032894651       -3.2157479371       -2.4619355274
 C         -0.7964611130       -2.8236353330       -2.8265210096
 H         -0.9775844729       -2.4051602095       -3.8053116828
 H         -1.6100413758       -3.4282209896       -2.4527816607
 H          1.3895287013       -3.0660948235       -3.1864050933
 H          0.7400169662       -4.0876246159       -1.8400874436
 H          0.3201292049       -1.0340748194       -2.1526817697
