  62
        -98.94226577
 C          2.1569633578        1.0556217165        0.0993078510
 C          1.5351382165        0.2119714146       -0.8484501976
 C          1.9819800621       -1.1937060518       -0.8902773266
 C          2.9412766283       -1.5940902784       -0.0357417690
 C          3.5686136731       -2.9565426072        0.1129278351
 C          2.6637128476       -3.9648821181        0.8317683553
 C          1.2350570361       -4.0285395242        0.3000931408
 H          0.6878543651       -4.7543435491        0.9088530695
 H          0.7473917738       -3.0633437383        0.4495027150
 C          1.1074003893       -4.4533911744       -1.1618330341
 H          1.6216401061       -5.4066712947       -1.3047239065
 H          0.0435028709       -4.6171843617       -1.3515468607
 C          1.6201045930       -3.4521911357       -2.2026125877
 H          2.6964208439       -3.5284017913       -2.3366929802
 H          1.1682553202       -3.7211566281       -3.1615337835
 C          1.2345719729       -2.0043977103       -1.9199140778
 H          1.3031402213       -1.4290213109       -2.8504537140
 H          0.1788550851       -1.9637671985       -1.6256175266
 H          2.6161462905       -3.6910880223        1.8890377813
 H          3.1265693828       -4.9514962728        0.7588825964
 H          3.8676003072       -3.3405568389       -0.8580108959
 H          4.4736219527       -2.8160787365        0.7091018698
 O          3.5002975445       -0.7453901591        0.8780850420
 C          3.1102015682        0.5735350849        0.9914550894
 O          3.6765260062        1.2076296754        1.9081620693
 H          0.3025449471        1.0089147027        1.8808929489
 C         -0.3403580813        1.6655235848        1.3061660582
 C          0.2276197900        2.5540306473        0.4009750678
 C         -0.6158845405        3.3915245539       -0.3172977496
 C         -1.9898150535        3.3043942617       -0.1680192430
 C         -2.5509155082        2.3665914579        0.6799905083
 C         -1.7131322893        1.5466879810        1.4230346444
 N         -2.2923683223        0.5131097317        2.2197806620
 S         -2.2155717337       -0.9551068380        1.3790466160
 O         -2.8708392189       -1.9274813734        2.2295098655
 O         -0.8554742772       -1.2826360490        1.0092754693
 C         -3.2090650222       -0.6164540987       -0.0532262949
 C         -4.5760012381       -0.7899443778        0.0486992905
 C         -5.3732652984       -0.4807197411       -1.0409265958
 C         -4.7915962939        0.0000349646       -2.2048888406
 C         -3.4184159042        0.1706038729       -2.2881073479
 C         -2.6121704794       -0.1374463145       -1.2025660712
 H         -1.5409056745       -0.0036551040       -1.2395530628
 H         -2.9620707271        0.5482805994       -3.1889215941
 H         -5.4117575987        0.2444895895       -3.0529374497
 H         -6.4416072814       -0.6116896462       -0.9790324210
 H         -4.9776258767       -1.1679284280        0.9745097733
 H         -1.8063967324        0.3842138467        3.0983790436
 H         -3.6190805568        2.2555687702        0.7713816764
 H         -2.6312859355        3.9556130740       -0.7411036279
 H         -0.1960402205        4.0999247788       -1.0126601545
 C          1.7245696986        2.5075284426        0.2201385549
 H          2.2049178964        2.8958530107        1.1303327495
 C          2.2138092100        3.3024997586       -0.9724428805
 C          2.5077451546        4.7657749357       -0.8371930088
 C          3.6316406059        3.7859791197       -0.9861853959
 H          4.1765002396        3.7597548235       -1.9178249852
 H          4.2383287704        3.5616425047       -0.1206223862
 H          2.2851180315        5.4159902584       -1.6695721828
 H          2.3577030789        5.2188872361        0.1310301323
 H          1.7980182669        2.9445423683       -1.9072779459
 O          0.6426790090        0.6137336853       -1.6409435844
