  62
        -98.93414816
 C         -1.7667034995       -0.6582308504       -0.9925840903
 C         -2.0687012195       -0.2668904508        0.3322850398
 C         -3.5019265994       -0.1678636811        0.6866430199
 C         -4.4270339495       -0.4811120210       -0.2385862901
 C         -5.9272494395       -0.4189419112       -0.1241282700
 C         -6.4689522197        1.0171941488       -0.1978284195
 C         -5.7040906397        2.0348664987        0.6439362907
 H         -6.1238238699        3.0219783887        0.4329597709
 H         -4.6605229598        2.0519630289        0.3249546106
 C         -5.7703556496        1.8113197383        2.1529005806
 H         -6.8154579596        1.8151034180        2.4703560507
 H         -5.2764724897        2.6627371982        2.6279709308
 C         -5.1079710294        0.5319269782        2.6700263102
 H         -5.7431903193       -0.3347532618        2.5075636100
 H         -4.9998184593        0.6368901279        3.7535221602
 C         -3.7109296394        0.2708503785        2.1161537600
 H         -3.2291730292       -0.4997512916        2.7301423698
 H         -3.0975483795        1.1687994086        2.2521991002
 H         -7.5176158496        1.0051811386        0.1041986305
 H         -6.4221187698        1.3431891690       -1.2398764795
 H         -6.3282163795       -0.9853717010       -0.9677650901
 H         -6.2544175793       -0.9092158915        0.7879117799
 O         -4.0862506595       -0.8906715106       -1.4951445902
 C         -2.7715105795       -0.9995627803       -1.8999260804
 O         -2.6241453796       -1.4131149200       -3.0679497605
 H          2.0515629905       -0.0812103301       -0.2731371105
 C          1.6863873106       -1.0419105502        0.0467220293
 C          0.4916348907       -1.5384419602       -0.4472438008
 C          0.0460613709       -2.7762409404        0.0117427290
 C          0.7666523210       -3.4828596406        0.9533105687
 C          1.9655232510       -2.9865515505        1.4364934188
 C          2.4261183108       -1.7613521704        0.9752952690
 N          3.6375102108       -1.2204312803        1.4357951391
 S          4.6969583806       -0.5681103899        0.3151877892
 O          4.6035633606       -1.2460276696       -0.9573680210
 O          5.9906842406       -0.6109837499        0.9638571291
 C          4.2023987903        1.1327567001        0.1405109297
 C          3.9781802303        1.8801030898        1.2795653599
 C          3.6311325501        3.2148287198        1.1454695102
 C          3.5213965100        3.7784087501       -0.1168521496
 C          3.7527293400        3.0149053204       -1.2510612398
 C          4.0976548902        1.6785167504       -1.1235813402
 H          4.2776143102        1.0454877307       -1.9781162304
 H          3.6640489299        3.4534357706       -2.2324444897
 H          3.2505734498        4.8176388501       -0.2184820393
 H          3.4465943001        3.8114456895        2.0242449404
 H          4.0736806405        1.4091775295        2.2435187897
 H          4.1222081909       -1.7874196704        2.1164034189
 H          2.5351682111       -3.5414207207        2.1668149586
 H          0.3995403712       -4.4343943207        1.3083615985
 H         -0.8854622891       -3.1705788304       -0.3729144611
 C         -0.3349083995       -0.8061383601       -1.4760065605
 H         -0.4033426295       -1.4552290699       -2.3657370507
 C          0.3022564103        0.4966513501       -1.9380029302
 C         -0.5348334099        1.6386961801       -2.4295217398
 C          0.2056153802        1.7567342299       -1.1330661799
 H          1.0687020401        2.4048714300       -1.0908097498
 H         -0.3533489698        1.7124687996       -0.2123222798
 H         -1.6085750999        1.5214071600       -2.4009361898
 H         -0.1809711401        2.2014191104       -3.2801924497
 H          1.2353844602        0.3244400204       -2.4669456103
 O         -1.1962787094       -0.0010914909        1.1988736898
