  62
        -98.94487362
 C         -1.9327293099       -0.5279922993       -0.6137325918
 C         -3.0055500597       -1.3154624003       -0.1299490129
 C         -4.3409494798       -0.7210251703       -0.2505952418
 C         -4.4817062900        0.4940604506       -0.8111192698
 C         -5.7800972702        1.2229460508       -1.0283876684
 C         -6.2688475801        2.0061581687        0.1977849329
 C         -6.8114553899        1.1495859667        1.3424917716
 H         -7.5641637498        0.4623759172        0.9548430306
 H         -7.3143319099        1.8252997155        2.0371941928
 C         -5.7384459496        0.3632375456        2.1084726202
 H         -5.9042385295        0.4728564339        3.1825851004
 H         -4.7542771797        0.7854482961        1.8920792507
 C         -5.7128481494       -1.1347376339        1.8044667877
 H         -6.6473340093       -1.5920368446        2.1369035071
 H         -4.8961270193       -1.5860643747        2.3734148569
 C         -5.5026836796       -1.4750261914        0.3230876671
 H         -6.4096634597       -1.2656207806       -0.2434707624
 H         -5.2783172794       -2.5415392213        0.2444225454
 H         -7.0663382503        2.6728912591       -0.1383578259
 H         -5.4485326502        2.6278814182        0.5640671038
 H         -5.6059009704        1.9306542721       -1.8418061473
 H         -6.5495515601        0.5165805511       -1.3412470095
 O         -3.4261666702        1.2136141315       -1.2766485388
 C         -2.1269584501        0.7347294615       -1.1733881597
 O         -1.2604782303        1.5131079124       -1.6147236286
 H          1.7353162399        0.4220567921       -1.1345689307
 C          1.4167773001        0.5203655303       -0.1111684705
 C          0.3081562902       -0.1654895606        0.3568663585
 C         -0.0796544896        0.0169682772        1.6831249988
 C          0.6159090603        0.8742713359        2.5117784902
 C          1.7209375702        1.5614825169        2.0388623811
 C          2.1183783200        1.3858094691        0.7195184808
 N          3.2222033699        2.0895524801        0.2123495918
 S          4.3709587298        1.3278913018       -0.7310216696
 O          5.4833504597        2.2517641820       -0.7593550882
 O          3.8168213497        0.9564945338       -2.0070768101
 C          4.8158096202       -0.1244117297        0.2034159680
 C          4.1811172703       -1.3228232493       -0.0521704239
 C          4.4912648106       -2.4234181006        0.7314083942
 C          5.4235418707       -2.3074563321        1.7506798043
 C          6.0550559906       -1.0966496924        1.9924413162
 C          5.7466836703        0.0079958588        1.2157073681
 H          6.2216775802        0.9644987087        1.3625162796
 H          6.7829476007       -1.0106599936        2.7830778962
 H          5.6606352709       -3.1669026631        2.3577199329
 H          4.0024813607       -3.3659269603        0.5426563728
 H          3.4649584002       -1.3767181481       -0.8550816839
 H          3.6620197899        2.7090712091        0.8770715227
 H          2.2620846602        2.2391814559        2.6815851422
 H          0.2993598705        1.0093816742        3.5350069804
 H         -0.9455654195       -0.5176543935        2.0492477481
 C         -0.5206825298       -1.0791674793       -0.5103124729
 H         -0.6259215295       -2.0439254102        0.0071904355
 C          0.0588784101       -1.3279690970       -1.8856450034
 C          1.1132929002       -2.3755788165       -2.0755593152
 C         -0.2745646898       -2.6065356859       -2.5920605154
 H         -0.4427398100       -2.5770255541       -3.6581648853
 H         -0.9039304496       -3.3123357368       -2.0698672865
 H          1.4216002504       -2.9341066779       -1.2044837562
 H          1.9026967701       -2.1877813852       -2.7886131650
 H          0.1168221099       -0.4298822460       -2.4906726319
 O         -2.8533520794       -2.4586612111        0.3773693552
