  62
        -98.94557084
 C         -1.9679777880       -1.5157250797       -0.0969602890
 C         -1.6897725279       -0.2680657126       -0.7067083734
 C         -2.8171981580        0.6741774494       -0.7669616741
 C         -4.0186185166        0.2979936338       -0.2921414521
 C         -5.2354817086        1.1753466408       -0.2461806012
 C         -5.3249522751        1.9272188802        1.0892296553
 C         -4.0264380886        2.6272522879        1.4903789228
 H         -4.2162299444        3.1500200486        2.4304184742
 H         -3.2616693336        1.8733602127        1.6911574423
 C         -3.4953315653        3.6220783121        0.4491825042
 H         -4.2927472327        3.8924449385       -0.2440372374
 H         -3.1905334072        4.5359034467        0.9636144501
 C         -2.2810774304        3.1288770469       -0.3402775015
 H         -1.5153492698        2.7673966977        0.3504362423
 H         -1.8642124096        3.9834145486       -0.8793429610
 C         -2.5541300493        2.0252800482       -1.3698121140
 H         -3.3763751220        2.3240558730       -2.0231033477
 H         -1.6526556625        1.9065744941       -1.9777295109
 H         -6.1302039780        2.6609077152        1.0196374879
 H         -5.5850327119        1.2117316983        1.8729345181
 H         -5.1996226569        1.8828944865       -1.0721064510
 H         -6.1193132377        0.5449387120       -0.3579164069
 O         -4.2532323617       -0.9233379486        0.2539187303
 C         -3.2323351879       -1.8503887883        0.3856972607
 O         -3.5699890106       -2.9164963373        0.9397976750
 O         -0.5648181369        0.0427726504       -1.1749346939
 C         -0.8580984433       -2.5416836638        0.0509845787
 C          0.3048945368       -1.9058845131        0.7716110469
 C          0.0760302521       -1.3084282748        2.0086821891
 C          1.0965844977       -0.6726898238        2.6885000654
 C          2.3701477360       -0.6155840980        2.1489738733
 C          2.6095765368       -1.2118628225        0.9193181384
 C          1.5840536320       -1.8608163050        0.2428713927
 H          1.7901504467       -2.3162339266       -0.7128882554
 N          3.8998126735       -1.1521486030        0.3585592411
 S          4.6082643381        0.3594951930        0.2133905001
 O          5.6556056936        0.1882293711       -0.7687256068
 O          5.0307933900        0.8134973681        1.5147421310
 C          3.3270285259        1.4217941020       -0.4238216038
 C          3.0046598458        1.3206415507       -1.7621668163
 C          1.9843716018        2.1078427617       -2.2674022440
 C          1.3027131738        2.9733996435       -1.4275223384
 C          1.6347328909        3.0601556879       -0.0853874355
 C          2.6557518536        2.2760657148        0.4260765187
 H          2.9468477053        2.3175466591        1.4629938128
 H          1.0987338753        3.7334135839        0.5647139284
 H          0.5055724880        3.5831127364       -1.8222671516
 H          1.7178418275        2.0387474622       -3.3097964350
 H          3.5633712603        0.6420987051       -2.3870372924
 H          3.9777554569       -1.6522001523       -0.5157265623
 H          3.1773587149       -0.1149284845        2.6584374061
 H          0.9005542002       -0.2129940215        3.6456094340
 H         -0.9219855775       -1.3422970237        2.4253932760
 H         -1.2624189283       -3.3439663915        0.6845209795
 C         -0.5028660908       -3.1220614109       -1.3018594864
 C          0.1071596456       -4.4874764407       -1.3995365891
 C         -1.3105331639       -4.2665535172       -1.8323582442
 H         -1.5387022075       -4.2918145433       -2.8874068407
 H         -2.1054388664       -4.6444270605       -1.2059238178
 H          0.8508157358       -4.6697927465       -2.1609151496
 H          0.2781638789       -5.0256134671       -0.4794308619
 H         -0.1866719475       -2.3654327607       -2.0110852367
