  62
        -98.93117531
 C         -2.4580385056       -1.2737084660       -0.3158945266
 C         -2.0342751850        0.0570333399       -0.0850866859
 C         -3.0377958949        0.9903641673        0.4758903469
 C         -4.2717080689        0.5354044838        0.7572919627
 C         -5.4556132349        1.2967799485        1.2924009797
 C         -6.1256240042        2.1799167639        0.2280673028
 C         -5.1600233854        2.9843557470       -0.6376908818
 H         -4.4780075123        2.2993859216       -1.1445142650
 H         -5.7474443969        3.4878966579       -1.4099203957
 C         -4.3536868893        4.0477481799        0.1041563244
 H         -5.0403710289        4.7436294374        0.5910769125
 H         -3.7897367381        4.6083316389       -0.6456829507
 C         -3.3634429875        3.5291028935        1.1498864713
 H         -3.8694325488        3.2553298355        2.0718292253
 H         -2.6915249002        4.3553013279        1.4003975458
 C         -2.4803806057        2.3797164040        0.6743578870
 H         -2.0113992506        2.6589799198       -0.2762393825
 H         -1.6479829340        2.2616801865        1.3795564266
 H         -6.8195425343        2.8565492272        0.7296587089
 H         -6.7053939775        1.5312656313       -0.4331945473
 H         -5.1616081864        1.8863514683        2.1557254142
 H         -6.1784618620        0.5508936231        1.6306329571
 O         -4.6288189672       -0.7630011697        0.5399840204
 C         -3.7493378353       -1.6899606023        0.0216660687
 O         -4.2245453778       -2.8380317767       -0.0906106664
 O         -0.8789244217        0.4863845773       -0.3408909881
 C         -1.5315910529       -2.3551600007       -0.8504127882
 C         -0.2615581968       -2.3684704544       -0.0378515567
 C         -0.2600729916       -2.9788913943        1.2124128513
 C          0.8707901564       -2.9550581270        2.0074081339
 C          2.0176145005       -2.3115186404        1.5767373990
 C          2.0194014023       -1.6867935236        0.3371535515
 C          0.8902277314       -1.7325809779       -0.4704725912
 H          0.8938444104       -1.2305473418       -1.4252287172
 N          3.1761421435       -1.0185071274       -0.1071077775
 S          4.0115714336       -0.0923282397        1.0326134038
 O          4.8999262991       -0.9667847066        1.7596428167
 O          3.0930822096        0.6780887265        1.8402958672
 C          4.9586064620        0.9805232014       -0.0295822464
 C          6.2459195380        0.6239292118       -0.3823669736
 C          6.9622626077        1.4549107514       -1.2293799499
 C          6.3820589827        2.6201312228       -1.7075804123
 C          5.0882873717        2.9645954783       -1.3448121028
 C          4.3661284187        2.1380828701       -0.4986265553
 H          3.3606013683        2.3713836413       -0.1844214907
 H          4.6396092962        3.8716781580       -1.7168564285
 H          6.9413385004        3.2662129957       -2.3656813522
 H          7.9686134733        1.1919785475       -1.5126745324
 H          6.6560699220       -0.2874953566        0.0201297334
 H          2.9893405955       -0.4734168229       -0.9382691276
 H          2.9010244444       -2.2658542297        2.1935913708
 H          0.8588831895       -3.4337388999        2.9754155756
 H         -1.1634002642       -3.4620326825        1.5601628599
 H         -2.0654851278       -3.2990904961       -0.6569527163
 C         -1.2793647868       -2.3027366796       -2.3498402803
 C         -2.4048487974       -1.9986404986       -3.2923921599
 C         -1.2694837737       -1.0331890984       -3.1443435279
 H         -0.5622649152       -0.9497465729       -3.9569515983
 H         -1.4444888430       -0.1065031043       -2.6221380816
 H         -2.4841450401       -2.5695904755       -4.2050659414
 H         -3.3578038002       -1.7383580434       -2.8542817754
 H         -0.5825273723       -3.0749423159       -2.6620138354
