  62
        -98.94414561
 C          2.1979878448       -0.7874491593        0.0263398477
 C          2.9038377098       -0.0966316337       -0.9863392190
 C          3.6859434540        1.0663439228       -0.5462783668
 C          3.6574676144        1.4244974129        0.7507839638
 C          4.4438092356        2.5564936280        1.3445298600
 C          5.8103843182        2.0764413812        1.8530854548
 C          6.5863392838        1.2358708907        0.8391339575
 H          7.5451076531        0.9797610914        1.2949655954
 H          6.0510353963        0.2989684543        0.6687840396
 C          6.8304298883        1.9310290539       -0.5076049163
 H          6.6890198502        3.0071284653       -0.4006673751
 H          7.8691429319        1.7684542661       -0.8027010286
 C          5.9571809355        1.4174639449       -1.6539368017
 H          6.0236672266        0.3277339869       -1.7054660166
 H          6.3574201042        1.8139864002       -2.5908718991
 C          4.4748129896        1.8066487456       -1.5895686460
 H          4.3835283334        2.8858953938       -1.4498152062
 H          4.0203182117        1.5457265179       -2.5501664955
 H          6.4011391381        2.9509014636        2.1317112911
 H          5.6529997574        1.4722834766        2.7494420041
 H          4.5760626490        3.3336917101        0.5942453315
 H          3.8772537860        2.9655185622        2.1827401230
 O          2.9344744549        0.7602534182        1.6879297943
 C          2.1935854221       -0.3651947273        1.3561577190
 O          1.5866590246       -0.8812591148        2.3121390649
 H         -0.0515806525        0.1722549086       -0.8504088311
 C         -0.6593157977       -0.5851682401       -0.3692695197
 C         -0.0753749299       -1.7971223996       -0.0206289254
 C         -0.8719554509       -2.7645962843        0.5772372637
 C         -2.2077497911       -2.5103208604        0.8370650203
 C         -2.7779015871       -1.2950161855        0.5075588366
 C         -1.9947937246       -0.3247978952       -0.1046033966
 N         -2.5615271945        0.9189965085       -0.4355037886
 S         -3.9871354163        0.9295709483       -1.3234134982
 O         -4.0910125002       -0.2369072890       -2.1693390401
 O         -4.0058857477        2.2124203347       -1.9920545009
 C         -5.2652457568        0.9023445124       -0.0844877292
 C         -6.2270643563       -0.0885279192       -0.1086775197
 C         -7.2168918455       -0.0850671527        0.8618761872
 C         -7.2276654592        0.9044217713        1.8329378591
 C         -6.2561249520        1.8943401392        1.8412813467
 C         -5.2643580153        1.8971143692        0.8735694394
 H         -4.4933359670        2.6489404199        0.8433578463
 H         -6.2675905028        2.6620024428        2.5981809290
 H         -7.9977120142        0.9046461994        2.5880890055
 H         -7.9730870657       -0.8534702964        0.8571849676
 H         -6.1747336489       -0.8404181172       -0.8798693475
 H         -1.8991107453        1.5754473044       -0.8225196464
 H         -3.8151832427       -1.0912667614        0.7167617899
 H         -2.8127056561       -3.2694450375        1.3087734027
 H         -0.4463041857       -3.7177173434        0.8443752454
 C          1.3827044001       -2.0110639314       -0.3475279277
 H          1.4733120977       -2.1000473379       -1.4411514070
 C          1.9717940986       -3.2515838521        0.2913504094
 C          1.8535673709       -4.5829574681       -0.3865016873
 C          3.1772718495       -3.8828444692       -0.3361497497
 H          3.9482406593       -4.2773687671        0.3085818766
 H          3.5550443553       -3.4346145072       -1.2438279167
 H          1.7180588641       -5.4626433211        0.2244163586
 H          1.3357094816       -4.6181930250       -1.3331650850
 H          1.9301960997       -3.2196843636        1.3742929278
 O          2.8750213260       -0.4324385582       -2.2023966608
