  62
        -98.93857775
 C         -1.2481562602       -1.1832728050       -0.8213016903
 C         -2.6124009895       -1.3625595365       -0.4509401074
 C         -3.4934906073       -0.1927059867       -0.5325712221
 C         -2.9827702895        0.9816401797       -0.9409498366
 C         -3.7428945476        2.2731099069       -1.0192608117
 C         -3.6293403542        3.0628814423        0.2918804001
 C         -3.9312141714        2.2344855178        1.5408871864
 H         -3.1519660556        1.4775583970        1.6618578607
 H         -3.8567004991        2.9046807948        2.4003592767
 C         -5.3081277128        1.5553049441        1.5380590641
 H         -5.7708144237        1.7008868357        2.5164477249
 H         -5.9543028004        2.0317843603        0.7998644099
 C         -5.2715181073        0.0474261208        1.2821133406
 H         -4.5494324720       -0.4201981536        1.9565705575
 H         -6.2565675206       -0.3619666769        1.5217999148
 C         -4.9357129011       -0.3774420955       -0.1527969871
 H         -5.5873698561        0.1484257428       -0.8537267736
 H         -5.1332682020       -1.4500538884       -0.2362308397
 H         -2.6098770847        3.4466632070        0.3799310447
 H         -4.3112618139        3.9140861231        0.2433719921
 H         -3.3243611936        2.8711402423       -1.8305819784
 H         -4.7877848853        2.0608114902       -1.2381333913
 O         -1.6848126597        1.1246190215       -1.2938255256
 C         -0.7808688793        0.0690247895       -1.2311115515
 O          0.3636112120        0.4104166164       -1.5814612140
 O         -3.0817715428       -2.4693927361       -0.0677410948
 C         -0.3915446486       -2.4323406458       -0.6795745774
 C          0.5252689506       -2.3918588255        0.5228804045
 C          0.5427353204       -3.4542396513        1.4217802862
 C          1.3739945720       -3.4297174211        2.5269097845
 C          2.1904449337       -2.3391475878        2.7688248240
 C          2.1814832662       -1.2743283353        1.8758043810
 C          1.3696303833       -1.3165826859        0.7515198818
 H          1.3753332528       -0.4852657043        0.0689291135
 N          3.0037667240       -0.1568682314        2.0732690507
 S          2.4982315774        1.3619571406        1.5814362725
 O          3.3217838487        2.2728141032        2.3547464762
 O          1.0723010172        1.5314251994        1.7500799699
 C          2.9825750914        1.4954408308       -0.1251034663
 C          3.9678334234        0.6724380714       -0.6305878688
 C          4.3563379066        0.8303304623       -1.9511057643
 C          3.7634610663        1.8067410405       -2.7356657463
 C          2.7804162249        2.6291447820       -2.2097168408
 C          2.3839470204        2.4733079517       -0.8918339469
 H          1.6070804265        3.0781021093       -0.4511198807
 H          2.3117244604        3.3826423148       -2.8225183757
 H          4.0631117546        1.9233100954       -3.7654535092
 H          5.1154403207        0.1861856278       -2.3652806102
 H          4.4019918010       -0.0853085589        0.0004566118
 H          3.5008806404       -0.1270408864        2.9511090108
 H          2.8255997798       -2.3087618239        3.6409812673
 H          1.3761818694       -4.2605433652        3.2161177332
 H         -0.1135200687       -4.2963532482        1.2561398005
 H         -1.1417874483       -3.2120110910       -0.4716610939
 C          0.3818134090       -2.9410043403       -1.8939308129
 C          0.1162136385       -2.4814335566       -3.2936286830
 C          1.4309437516       -2.1766976067       -2.6403521435
 H          2.3056071255       -2.7175042298       -2.9708811817
 H          1.6176313559       -1.1545883915       -2.3572456970
 H          0.0757148801       -3.2184549534       -4.0820955148
 H         -0.5730145872       -1.6596689710       -3.4247204844
 H          0.5859310512       -4.0029754178       -1.7834155489
