  62
        -98.93746229
 C         -2.3969288537       -1.1197526746       -0.0143210492
 C         -3.3813482458       -0.6408479173        0.8876878153
 C         -4.3910718191        0.2976635975        0.3637706065
 C         -4.3360784324        0.6410537361       -0.9361773159
 C         -5.2223197967        1.5953764372       -1.6916663298
 C         -4.9071591202        3.0678834057       -1.3844230586
 C         -4.7001108568        3.3849343881        0.0941866803
 H         -3.8824080176        2.7738838529        0.4807930417
 H         -4.3867272307        4.4296076980        0.1683951746
 C         -5.9323965526        3.2032682373        0.9772567556
 H         -6.7393574138        3.8359017386        0.6009981839
 H         -5.6696129656        3.5599298487        1.9763962925
 C         -6.4570365563        1.7716148912        1.1090900561
 H         -7.1553999924        1.7576764443        1.9509206810
 H         -7.0271481896        1.4783660444        0.2316185962
 C         -5.3872327623        0.7278103915        1.4133803832
 H         -4.7963625108        1.0585319113        2.2750886927
 H         -5.8821511101       -0.1939207906        1.7422344038
 H         -5.7162414163        3.6831190990       -1.7817515970
 H         -3.9891596138        3.3344352221       -1.9140132113
 H         -5.0418845184        1.4153835765       -2.7538581116
 H         -6.2663121450        1.3733258976       -1.4915478945
 O         -3.3755523899        0.1532357707       -1.7701935515
 C         -2.3920430261       -0.7228083418       -1.3505016122
 O         -1.6034742985       -1.0524423997       -2.2615161547
 H          0.3109373965       -0.8724663194       -1.1865298615
 C          0.6951687605       -0.8579953784       -0.1770678649
 C         -0.0538761281       -1.4273249091        0.8430422679
 C          0.4537389855       -1.3947828159        2.1365916518
 C          1.6787072186       -0.8063213794        2.3983975183
 C          2.4191177320       -0.2352646349        1.3790292885
 C          1.9196867986       -0.2598264458        0.0833612512
 N          2.6535784007        0.3385934575       -0.9579524808
 S          4.2416975842       -0.1649927785       -1.1789444254
 O          4.5439883024        0.1178943521       -2.5649014379
 O          4.4276619094       -1.5309147099       -0.7459088388
 C          5.1876904079        0.9334735123       -0.1445453325
 C          5.0929410373        2.2915207542       -0.3774356977
 C          5.8275981990        3.1590358356        0.4150024035
 C          6.6423814535        2.6566861587        1.4188542532
 C          6.7298951139        1.2903175864        1.6372890339
 C          5.9965911551        0.4171477858        0.8488619769
 H          6.0285152465       -0.6521557221        0.9845043837
 H          7.3644515121        0.9017511114        2.4175079108
 H          7.2128774325        3.3343995439        2.0341416074
 H          5.7623845022        4.2221306150        0.2477841834
 H          4.4523275385        2.6398244180       -1.1704493427
 H          2.1603365413        0.3327748789       -1.8398863547
 H          3.3718954426        0.2278947409        1.5770994599
 H          2.0603275656       -0.7892706743        3.4077984258
 H         -0.1241899649       -1.8272781564        2.9402816752
 C         -1.3766509411       -2.0945459123        0.5484112734
 H         -1.8011896127       -2.4275195879        1.5051070205
 C         -1.1688148970       -3.3127054300       -0.3314938994
 C         -0.6263493262       -4.5677655234        0.2805877021
 C         -2.0581863460       -4.5053773904       -0.1580342069
 H         -2.3561757172       -5.0571266710       -1.0369500271
 H         -2.8226131197       -4.4512330935        0.6033740802
 H         -0.4202508191       -4.5583473092        1.3401112222
 H          0.0649084192       -5.1635860962       -0.2955815156
 H         -0.8568573023       -3.0687136486       -1.3389930843
 O         -3.4215676340       -0.9871160265        2.0989054021
