  62
        -98.93713719
 C         -2.5232496956       -1.1628210959       -0.3791939621
 C         -2.1994980648        0.1168049095        0.1381117740
 C         -3.3091669149        0.8461603822        0.7714526333
 C         -4.5208670187        0.2741516145        0.8792323510
 C         -5.7398813762        0.8841800960        1.5161542545
 C         -6.5333177509        1.8108839940        0.5847775757
 C         -5.8728821152        3.1584598677        0.2909903676
 H         -6.6261466002        3.7860052009       -0.1894048411
 H         -5.5990801743        3.6398611555        1.2303784583
 C         -4.6435193905        3.0753270296       -0.6245113333
 H         -4.7076919668        3.8503139539       -1.3915627678
 H         -4.6392144318        2.1130982750       -1.1418273631
 C         -3.3056156350        3.2579137575        0.0925196820
 H         -2.5042170845        3.1478963838       -0.6426473655
 H         -3.2456830475        4.2672906093        0.5055360138
 C         -3.0521892882        2.2521745856        1.2235043461
 H         -2.0013247171        2.3196059043        1.5169662616
 H         -3.6714155385        2.4934673240        2.0873083179
 H         -7.4991039996        1.9994623747        1.0591800262
 H         -6.7216726940        1.2846649684       -0.3539306283
 H         -6.3859648471        0.0532009212        1.8075384083
 H         -5.4497471622        1.4297196911        2.4145889671
 O         -4.7761556014       -0.9806519223        0.4223357154
 C         -3.7965547848       -1.7186991258       -0.2204192563
 O         -4.1752037575       -2.8471141791       -0.5936792132
 H          0.9486408001       -0.8478401570       -1.4662293545
 C          0.9206698586       -1.4478444261       -0.5700506909
 C         -0.2436997488       -2.1152724977       -0.2296142841
 C         -0.2724232179       -2.8479304246        0.9534447786
 C          0.8402205010       -2.9116542152        1.7701551188
 C          2.0042121994       -2.2468458489        1.4255276447
 C          2.0387955054       -1.5036742626        0.2539217436
 N          3.2170307808       -0.8321857997       -0.1231173891
 S          4.1589266002       -0.1064400327        1.0740376574
 O          4.9077089778       -1.1368159908        1.7510447718
 O          3.3523211521        0.7440779477        1.9205567919
 C          5.2601911459        0.8708541885        0.0701202004
 C          4.9355097154        2.1857206150       -0.2047716897
 C          5.7840949449        2.9314184588       -1.0079957687
 C          6.9342406841        2.3517531522       -1.5223778059
 C          7.2462901986        1.0306512508       -1.2378325115
 C          6.4030073085        0.2799265034       -0.4343403350
 H          6.6080878121       -0.7463519442       -0.1784870608
 H          8.1424642350        0.5846641821       -1.6379792798
 H          7.5924334002        2.9349654802       -2.1468586173
 H          5.5451239891        3.9593245549       -1.2289308052
 H          4.0349512233        2.5976379227        0.2227398928
 H          3.0478929765       -0.1830794322       -0.8798649177
 H          2.8752396013       -2.2803502896        2.0597071485
 H          0.8034670166       -3.4812105504        2.6870321015
 H         -1.1857489971       -3.3576316513        1.2305123207
 C         -1.4944573419       -2.0437638052       -1.0695935554
 H         -1.9471601214       -3.0483468924       -1.0805795135
 C         -1.2235371137       -1.6781350043       -2.5213875115
 C         -2.3397813754       -1.2106315160       -3.4060334244
 C         -1.2382670368       -0.2686820259       -3.0284737731
 H         -0.5207751495        0.0064291451       -3.7881230692
 H         -1.4510087300        0.5194935614       -2.3241694796
 H         -3.3097967634       -1.0748859852       -2.9496400715
 H         -2.3823159344       -1.5774246482       -4.4204460745
 H         -0.4997410878       -2.3497459141       -2.9733397675
 O         -1.0583160461        0.6430764737        0.0792194024
