  62
        -98.93857846
 C          2.7847355434        0.1979800307        0.0391155419
 C          2.1334611543        0.9386720350        1.0555716623
 C          1.7497700182        2.3148348838        0.7035664867
 C          2.0122926380        2.7865715215       -0.5271525102
 C          1.6489926728        4.1571619708       -1.0195190017
 C          0.2793903800        4.1745371934       -1.7112277802
 C         -0.8392444509        3.5050444786       -0.9121602522
 H         -1.7637833889        3.6456380069       -1.4780547844
 H         -0.6594451993        2.4277534470       -0.8709921724
 C         -1.0259212058        4.0495848857        0.5110267696
 H         -0.5692912669        5.0367671902        0.5943163195
 H         -2.0952161215        4.1706698024        0.6980285073
 C         -0.4780593904        3.1404918566        1.6131643339
 H         -0.8146674571        2.1150697046        1.4366294123
 H         -0.8961281143        3.4689515326        2.5686113901
 C          1.0488200032        3.1207784936        1.7608327718
 H          1.4317998274        4.1428860307        1.7878198888
 H          1.2874106109        2.6377059795        2.7129848209
 H          0.0126535408        5.2145045032       -1.9118139864
 H          0.3672409280        3.6550473522       -2.6684704036
 H          1.6499846681        4.8480095673       -0.1782234430
 H          2.4088781553        4.4727902421       -1.7369738175
 O          2.6359294053        2.0470073134       -1.4803220126
 C          3.0080226571        0.7386398793       -1.2302662050
 O          3.5439159650        0.1652513169       -2.2011502631
 H          0.6686727978       -1.0992284815        1.0883379733
 C          0.7791827216       -1.8736144662        0.3434727133
 C          2.0340025548       -2.1312242021       -0.1907366833
 C          2.1521226472       -3.1370002897       -1.1416273105
 C          1.0386367429       -3.8465199451       -1.5610206177
 C         -0.2172446270       -3.5519402158       -1.0592091658
 C         -0.3387263787       -2.5585927088       -0.0988890676
 N         -1.6344681443       -2.1710804081        0.3534598261
 S         -2.2287460364       -1.0215601293       -0.7509885540
 O         -2.4674560987       -1.7054282257       -1.9972848896
 O         -1.3418525682        0.1198556800       -0.8083689972
 C         -3.7819723272       -0.5601096089       -0.0078212226
 C         -4.8034768278       -1.4906489806        0.0052179186
 C         -6.0082324607       -1.1518323924        0.5995687977
 C         -6.1697165406        0.1035335101        1.1675896858
 C         -5.1351124046        1.0262090080        1.1455769338
 C         -3.9264421649        0.6934197409        0.5536087878
 H         -3.0961292809        1.3805239586        0.5082949539
 H         -5.2629750555        2.0019307334        1.5858681776
 H         -7.1087965324        0.3656149893        1.6287974720
 H         -6.8159436374       -1.8655010381        0.6177421215
 H         -4.6334774353       -2.4495396596       -0.4549735741
 H         -1.5605660508       -1.7011123480        1.2493483334
 H         -1.0999158075       -4.0568329460       -1.4157138238
 H          1.1470279437       -4.6195342314       -2.3066500512
 H          3.1196659529       -3.3399517757       -1.5775895133
 C          3.1990363084       -1.2584786139        0.2016777708
 H          3.9988543468       -1.4194766742       -0.5383702073
 C          3.7714168031       -1.5804911273        1.5742456708
 C          3.0850162628       -2.4669424339        2.5656226095
 C          4.3053572146       -2.9554541757        1.8489308822
 H          5.2289702205       -3.0517156977        2.3989437860
 H          4.1667255640       -3.7018031230        1.0811061160
 H          3.1626052834       -2.2016241867        3.6087934633
 H          2.1315707200       -2.8933719645        2.2956908843
 H          4.3344858162       -0.7485554446        1.9835919426
 O          1.8745091405        0.4954733854        2.2057147713
