  62
        -98.93367610
 C          1.2354917776        1.9033332255        0.4316030845
 C          1.8246351740        1.3834079813       -0.7460861259
 C          2.9188305715        0.4135998346       -0.5511922751
 C          3.2727582999        0.0548579699        0.6951795885
 C          4.3037485949       -0.9791219723        1.0492356076
 C          3.7394138933       -2.3976597917        0.8300143771
 C          4.4444407259       -3.1918290771       -0.2687570799
 H          5.4178266394       -3.5237835586        0.0982658866
 H          3.8439916664       -4.0830619714       -0.4640287539
 C          4.6685109298       -2.4427389140       -1.5860070347
 H          5.5434546211       -1.7968460456       -1.4975277925
 H          4.9106722841       -3.1922099051       -2.3424486484
 C          3.4874356458       -1.6013317811       -2.0877925603
 H          3.4338255460       -1.7070627109       -3.1735428184
 H          2.5466143692       -1.9825243073       -1.6886763939
 C          3.6032176480       -0.0940303980       -1.7908724117
 H          3.1377604200        0.4579695749       -2.6131798330
 H          4.6591217866        0.1897619362       -1.7637468915
 H          3.8070127377       -2.9653251044        1.7591590124
 H          2.6781674084       -2.3165084945        0.5867887671
 H          4.5638563140       -0.8312217144        2.0975910090
 H          5.1959179955       -0.8268587409        0.4454837362
 O          2.6641082703        0.5537155850        1.8022271126
 C          1.6495722194        1.4913232602        1.7020647753
 O          1.2028981955        1.8783936752        2.7979716531
 O          1.4708342633        1.6943187350       -1.9141290096
 C          0.0983148710        2.9161643598        0.4215771870
 C         -1.2145946911        2.1844108132        0.3155927482
 C         -2.2124262037        2.3290844604        1.2709843239
 C         -3.3780571120        1.5850080471        1.1904996708
 C         -3.5634716245        0.6714908444        0.1682615363
 C         -2.5686221611        0.5202467379       -0.7893038260
 C         -1.4137479085        1.2821022992       -0.7206447116
 H         -0.6461996609        1.1636610924       -1.4713584939
 N         -2.7122814987       -0.4610564895       -1.7920417447
 S         -2.9611075542       -2.0133815291       -1.2054668127
 O         -2.2988642301       -2.8989799112       -2.1372824693
 O         -4.3757469175       -2.2318595177       -1.0335357418
 C         -2.1608203328       -2.0505034269        0.3923747949
 C         -2.9091136319       -2.3415863706        1.5144658086
 C         -2.2954359081       -2.3209876182        2.7566010893
 C         -0.9514971583       -1.9985391450        2.8557228814
 C         -0.2121084474       -1.7096073721        1.7191998453
 C         -0.8173087420       -1.7386239999        0.4737594932
 H         -0.2608077289       -1.5154732176       -0.4240574679
 H          0.8296679877       -1.4435343087        1.8062861524
 H         -0.4717013584       -1.9632557979        3.8209378415
 H         -2.8668929235       -2.5461690002        3.6424577529
 H         -3.9549156306       -2.5717034192        1.3917785228
 H         -1.9477645581       -0.4569575612       -2.4533169277
 H         -4.4515222133        0.0634742991        0.1022632763
 H         -4.1444036610        1.7072263600        1.9401972963
 H         -2.0610724502        3.0132719137        2.0926501201
 H          0.1330085531        3.3967186751        1.4111558979
 C          0.2781653682        4.0084888144       -0.6238651638
 C         -0.6460326855        4.2080166575       -1.7843891180
 C         -0.6631368670        5.1766121056       -0.6428313698
 H         -0.2594835161        6.1664655970       -0.7923487206
 H         -1.5090291409        5.1402607061        0.0272653007
 H         -0.2090881360        4.5150549384       -2.7225668425
 H         -1.4852483675        3.5395686627       -1.8963686845
 H          1.3250436547        4.2281196041       -0.8056580067
