  62
        -98.94428601
 C          2.1141870900        1.3925983700       -0.0436231190
 C          2.4554031201        0.4047779502       -0.9992335592
 C          3.8040591701       -0.1649051399       -0.8750188192
 C          4.6386315400        0.2744077400        0.0833447909
 C          6.0454159500       -0.2011752900        0.3236831009
 C          6.1344965999       -1.4741879902        1.1765546207
 C          5.6977234300       -2.7603799001        0.4739713905
 H          6.2265850400       -2.8526191599       -0.4752180195
 H          6.0141228800       -3.5931894902        1.1051668004
 C          4.1851478900       -2.8706207400        0.2355199204
 H          3.8424072800       -3.8671563001        0.5234977402
 H          3.6609137800       -2.1570633701        0.8758862605
 C          3.7531264001       -2.6453527098       -1.2136192296
 H          4.1626695301       -3.4370854697       -1.8450586997
 H          2.6626892601       -2.7096414598       -1.2581324897
 C          4.1740253301       -1.2892476997       -1.7949970493
 H          3.6406484502       -1.1396018196       -2.7369004094
 H          5.2451528401       -1.2819771797       -1.9948349493
 H          7.1768700699       -1.5892210702        1.4825206708
 H          5.5368072599       -1.3322263703        2.0800095707
 H          6.5465151900       -0.3650674099       -0.6306649091
 H          6.5594255900        0.6039992199        0.8530147011
 O          4.2867219300        1.2489777399        0.9624855411
 C          3.0204952900        1.8059719699        0.9389652511
 O          2.8244712399        2.6603379097        1.8261001612
 O          1.6957392601        0.0042745703       -1.9213679993
 C          0.7431376700        2.0507177900        0.0119502010
 C         -0.2518545000        1.0937270399        0.6241127308
 C         -0.6706492901        1.2583841397        1.9397627208
 C         -1.5674487201        0.3728686296        2.5115586006
 C         -2.0666059401       -0.6917851603        1.7829525904
 C         -1.6520346800       -0.8648604901        0.4684233704
 C         -0.7586314700        0.0280227600       -0.1059137694
 H         -0.4226944099       -0.1274099898       -1.1197299894
 N         -2.1616404600       -1.9385625400       -0.2821479698
 S         -3.8181692800       -2.1710203900       -0.2446824999
 O         -4.1729690100       -2.9328783101        0.9274528000
 O         -4.1527000799       -2.7788635898       -1.5136614400
 C         -4.5139654900       -0.5313641700       -0.1268892997
 C         -4.1985229099        0.3848343602       -1.1109388195
 C         -4.6993210699        1.6723518102       -1.0122441993
 C         -5.5040758500        2.0204553300        0.0618810907
 C         -5.8167299700        1.0876565698        1.0380768205
 C         -5.3150654800       -0.2009100401        0.9468289803
 H         -5.5264368701       -0.9555459203        1.6868710302
 H         -6.4439641001        1.3602308997        1.8714800405
 H         -5.8888015000        3.0252466100        0.1366880908
 H         -4.4561279999        2.4001060503       -1.7695941892
 H         -3.5730993599        0.0844480303       -1.9362755495
 H         -1.7997672099       -1.9810546998       -1.2236539898
 H         -2.7599883201       -1.3965113603        2.2131032103
 H         -1.8807219902        0.5121037494        3.5349270806
 H         -0.2728685501        2.0803823796        2.5174322410
 H          0.8519538800        2.9021201999        0.6962461111
 C          0.2804171701        2.5720439202       -1.3346826589
 C         -0.8660378999        3.5353785802       -1.3825818488
 C          0.5234908901        4.0073169203       -1.6868421587
 H          0.7758697501        4.2512104604       -2.7080514786
 H          1.0260013901        4.6238248302       -0.9556427486
 H         -1.5692281799        3.4567781104       -2.1972288389
 H         -1.3086400600        3.8313491401       -0.4436882488
 H          0.3650980301        1.8477345503       -2.1334978390
