  62
        -98.93904629
 C          2.4706704823        0.9979188969        0.3686774937
 C          2.7660754693       -0.1778426111        1.1093823103
 C          4.1108928330       -0.7369002221        0.9412965771
 C          4.9926048978       -0.1152515576        0.1378929731
 C          6.4139773938       -0.5377950074       -0.1168317628
 C          6.5608845477       -1.6155908704       -1.1995508109
 C          6.0992835963       -3.0148633751       -0.7906338282
 H          6.4590982889       -3.7068771235       -1.5545611600
 H          6.5746706877       -3.2927405262        0.1505142080
 C          4.5768822839       -3.1677751385       -0.6652824127
 H          4.0827142213       -2.3384531574       -1.1769119998
 H          4.2601820204       -4.0855985368       -1.1657668061
 C          4.0616865491       -3.2366285377        0.7724961253
 H          4.4431845497       -4.1385875061        1.2563733714
 H          2.9709947367       -3.3057268645        0.7428706374
 C          4.4349174027       -2.0247624652        1.6363058835
 H          3.8447561103       -2.0635836530        2.5552938316
 H          5.4925141077       -2.0600142925        1.8973906826
 H          6.0111022124       -1.2956851799       -2.0876050682
 H          7.6193348833       -1.6684464611       -1.4644205343
 H          6.9489037589        0.3558048719       -0.4452811485
 H          6.8625361570       -0.8900803607        0.8124346146
 O          4.6819337138        1.0193964308       -0.5386456017
 C          3.4194738171        1.5922491788       -0.4641811895
 O          3.3010947250        2.6088618379       -1.1763926902
 O          1.9421729834       -0.7295999043        1.8883983364
 C          1.0757660513        1.5715623493        0.5407247907
 C          0.1431758738        1.1762115985       -0.5799250580
 C          0.3925494367        1.5365981780       -1.9003109864
 C         -0.5056287997        1.2014315140       -2.8968243262
 C         -1.6753971765        0.5256495782       -2.5966808645
 C         -1.9302828744        0.1557983033       -1.2815000204
 C         -1.0156856606        0.4726862609       -0.2867103274
 H         -1.2223868531        0.1678079214        0.7290823302
 N         -3.0987946710       -0.5445441995       -0.9436142580
 S         -3.8221800777       -0.2097405387        0.5458634036
 O         -3.7904678806        1.2121700788        0.8025586844
 O         -3.2269429389       -1.0536314108        1.5516412124
 C         -5.4930995927       -0.7427380303        0.2240537416
 C         -6.4446540748        0.1937954247       -0.1333103737
 C         -7.7337693251       -0.2330589377       -0.4111673420
 C         -8.0466417296       -1.5817058468       -0.3309220905
 C         -7.0808691340       -2.5098089493        0.0297719153
 C         -5.7903655580       -2.0898972526        0.3103725650
 H         -5.0096091615       -2.7723156343        0.6037557699
 H         -7.3286468970       -3.5570276835        0.0942240371
 H         -9.0504313804       -1.9113866005       -0.5475666199
 H         -8.4875642683        0.4862117644       -0.6881215180
 H         -6.1570981267        1.2320935516       -0.1746170808
 H         -3.7738141523       -0.5736269015       -1.6954556827
 H         -2.3826531644        0.2806842905       -3.3745591863
 H         -0.2997922829        1.4844448310       -3.9182380773
 H          1.2952874898        2.0795649708       -2.1341962374
 H          0.6893276254        1.1110110439        1.4610714712
 C          1.0475919820        3.0789016746        0.7157193931
 C         -0.1934271856        3.7132882722        1.2661615680
 C          1.0543083929        3.6618689289        2.0950402089
 H          1.5996007738        4.5783041543        2.2639627396
 H          1.0844821746        2.9749775243        2.9285784681
 H         -0.5044466651        4.6658675768        0.8652841855
 H         -1.0147120243        3.0622268827        1.5305795860
 H          1.5865883425        3.6116577695       -0.0567390293
