  62
        -98.94088911
 C          2.7272132414        0.8283366996       -0.1113952400
 C          3.2005444811       -0.0440758106        0.8971991700
 C          3.6274366708       -1.3728920906        0.4456452499
 C          3.5699745709       -1.6831368905       -0.8626641901
 C          3.9864825507       -2.9903517005       -1.4807385002
 C          2.8998650905       -4.0735907503       -1.4367064204
 C          2.6383816102       -4.6760352403       -0.0556484005
 H          2.0156985300       -5.5604335402       -0.2038161707
 H          3.5810596900       -5.0104810606        0.3783729096
 C          1.9268126403       -3.7307015403        0.9226025795
 H          1.4722304105       -2.9073726701        0.3660662195
 H          1.1154727701       -4.2649974602        1.4223934294
 C          2.8283387603       -3.1527660606        2.0140151097
 H          2.2312450003       -2.4740404205        2.6293366997
 H          3.1876309300       -3.9589140807        2.6573734796
 C          4.0388922405       -2.3716590108        1.4850422899
 H          4.4832686205       -1.8222738210        2.3186089400
 H          4.7828524504       -3.0582198909        1.0820327899
 H          1.9724050906       -3.6537130300       -1.8330023405
 H          3.2136953204       -4.8776113703       -2.1061859704
 H          4.2191083509       -2.7789340404       -2.5265358901
 H          4.8886798906       -3.3572490107       -0.9908472401
 O          3.1247691512       -0.8095877103       -1.8038382801
 C          2.6619804114        0.4514400298       -1.4531125500
 O          2.2339516317        1.1233559600       -2.4094564400
 O          3.2553531110        0.2698952893        2.1177948101
 C          2.2217132016        2.2030489597        0.2855192201
 C          0.7478454417        2.3190197501       -0.0228182800
 C          0.1830990420        3.4089256502       -0.6713837300
 C         -1.1792439080        3.4472341306       -0.9121508402
 C         -2.0047316082        2.4087413207       -0.5218725603
 C         -1.4546773186        1.3174251105        0.1386394796
 C         -0.0891303486        1.2888562902        0.3872843398
 H          0.3410749512        0.4398588201        0.9053980397
 N         -2.2481126488        0.2237639607        0.5196059794
 S         -3.7734296389        0.3313954509        1.2089552192
 O         -4.1990231986        1.7057938810        1.2987947693
 O         -3.7311587292       -0.4158194792        2.4473477592
 C         -4.7912647790       -0.5477211587        0.0379279190
 C         -5.4495099892       -1.6928645086        0.4406094989
 C         -6.2367136693       -2.3742498984       -0.4746812113
 C         -6.3507601790       -1.9022955182       -1.7729484713
 C         -5.6807315587       -0.7527310183       -2.1642056611
 C         -4.8930774087       -0.0677694886       -1.2530255209
 H         -4.3558802885        0.8246599813       -1.5286907908
 H         -5.7671814785       -0.3886335182       -3.1754375611
 H         -6.9633635191       -2.4327962280       -2.4847140414
 H         -6.7562028995       -3.2692465083       -0.1721032915
 H         -5.3311064094       -2.0246840688        1.4593140188
 H         -1.7244966291       -0.5080301895        0.9758221094
 H         -3.0670059182        2.4561064010       -0.6929148805
 H         -1.6065126777        4.2993445807       -1.4188690801
 H          0.8078516322        4.2263994501       -0.9910242998
 H          2.3422046515        2.2532222796        1.3786151001
 C          3.0654310819        3.2896665396       -0.3457032197
 C          3.2143124621        4.6182903595        0.3314549405
 C          4.3662453919        3.6607156892        0.2988275305
 H          5.2099929421        3.8869407791       -0.3355749894
 H          4.6322837817        3.1470872391        1.2113509105
 H          3.2701358824        5.5060286195       -0.2802748994
 H          2.7010017721        4.7611376195        1.2704689004
 H          3.0334861520        3.2653377597       -1.4289770897
