  62
        -98.93902477
 C         -2.1029260458       -0.7801522544        0.5043374094
 C         -1.9207487663       -0.0639021301       -0.7011161098
 C         -1.8648196236        1.4037258861       -0.5890808004
 C         -1.9767757597        1.9710557684        0.6241010183
 C         -1.9652729901        3.4373514231        0.9611539783
 C         -3.3906859304        4.0160867872        0.9688965691
 C         -3.8866073930        4.5262226004       -0.3833214489
 H         -4.9382942847        4.7954569332       -0.2627770305
 H         -3.3419071456        5.4356440553       -0.6448157215
 C         -3.7630982832        3.5313050609       -1.5396305897
 H         -4.4556377248        3.8408899684       -2.3245663175
 H         -4.0731471186        2.5397705995       -1.2049497943
 C         -2.3452413874        3.4593064048       -2.1264385096
 H         -1.7523352073        4.2875529292       -1.7395129960
 H         -2.3932709224        3.5917453624       -3.2093786052
 C         -1.6103017248        2.1360855751       -1.8778109591
 H         -1.8773596422        1.4181517413       -2.6603243219
 H         -0.5285315626        2.2921580043       -1.9608873274
 H         -4.0641719043        3.2395013059        1.3400484371
 H         -3.4262665056        4.8459018987        1.6776010293
 H         -1.5495032263        3.5157355752        1.9682215318
 H         -1.3198418920        3.9808489639        0.2774199059
 O         -2.1765279632        1.2428234961        1.7598363305
 C         -2.2141125260       -0.1383206724        1.7349731817
 O         -2.3568363327       -0.6736711704        2.8551195650
 H          0.3370869269       -1.2144633473        0.9293871764
 C          0.4031010515       -2.0332372367        0.2265212870
 C         -0.7435507364       -2.7378967521       -0.1174079950
 C         -0.6271266336       -3.7993587338       -1.0052945278
 C          0.6016207817       -4.1139850569       -1.5604043406
 C          1.7289881639       -3.3731234817       -1.2582055663
 C          1.6260977590       -2.3222784707       -0.3529708611
 N          2.7512945671       -1.5541153232       -0.0013598920
 S          2.5221095358        0.0868926816        0.3312939856
 O          2.0782584054        0.2272229027        1.6970890680
 O          1.6963455287        0.7045845334       -0.6810834345
 C          4.2043641324        0.6644232953        0.1917079362
 C          4.6166683604        1.2849910549       -0.9721743901
 C          5.9355846333        1.6977536359       -1.0811467106
 C          6.8155998928        1.4806265837       -0.0316973276
 C          6.3869613279        0.8570627785        1.1309322168
 C          5.0693904763        0.4436224457        1.2469547138
 H          4.6870151286       -0.0360728944        2.1328287074
 H          7.0730327101        0.6923178109        1.9459316401
 H          7.8413988851        1.8018155415       -0.1193234897
 H          6.2701475890        2.1858670659       -1.9822637803
 H          3.8942784495        1.4374079193       -1.7581410062
 H          3.5278860011       -1.6915944775       -0.6345649909
 H          2.6792652664       -3.6014535881       -1.7163128810
 H          0.6773815092       -4.9361527614       -2.2558080796
 H         -1.5008369165       -4.3699125983       -1.2750075460
 C         -2.0546968585       -2.2972657966        0.4906247886
 H         -2.0730846004       -2.6135632629        1.5445996318
 C         -3.2671684845       -2.8683735454       -0.2149417268
 C         -3.8245237758       -4.1985973548        0.1919182222
 C         -4.5664359152       -2.9409228971        0.5275474350
 H         -5.4782922091       -2.7187827496       -0.0059856097
 H         -4.5670456838       -2.6020603435        1.5536423308
 H         -3.3306657067       -4.7230589060        0.9959412113
 H         -4.2325622106       -4.8421112399       -0.5728462815
 H         -3.3023620221       -2.5929637152       -1.2627225732
 O         -1.8119271727       -0.6249721668       -1.8239555016
