  62
        -98.94230458
 C         -1.9941076098       -1.3116460888       -0.1647322484
 C         -3.0952434370       -1.2270920681        0.7276930112
 C         -4.2946940964       -0.5430498451        0.2295248118
 C         -4.2971850988       -0.0557330698       -1.0241444396
 C         -5.4300300180        0.7053347256       -1.6481254153
 C         -5.2785056675        2.2157018640       -1.4190892126
 C         -4.9885186615        2.5947776848        0.0333501032
 H         -4.0045801848        2.2109060615        0.3134414931
 H         -4.9315186871        3.6845560748        0.0797580385
 C         -6.0328748224        2.0941651845        1.0410402925
 H         -6.2705041865        2.9067248920        1.7308555757
 H         -6.9544189837        1.8319859574        0.5199843470
 C         -5.5761990276        0.9072087249        1.8914605841
 H         -6.2925868608        0.7782682224        2.7071240624
 H         -4.6053884344        1.1308038163        2.3412895038
 C         -5.4703350818       -0.4363368841        1.1591166610
 H         -6.4020416091       -0.6397179024        0.6271972334
 H         -5.3271891649       -1.2155508729        1.9134426657
 H         -6.1947789223        2.7084673127       -1.7493512609
 H         -4.4552160469        2.5796844133       -2.0383309008
 H         -5.4279614516        0.5076783119       -2.7214390675
 H         -6.3704358235        0.3561464361       -1.2261204149
 O         -3.2332244698       -0.1652293982       -1.8566348964
 C         -2.0517102219       -0.7773218834       -1.4524488539
 O         -1.1659557802       -0.7667972528       -2.3281756958
 O         -3.0754192231       -1.7135218006        1.8899412574
 C         -0.7584259526       -2.0275875102        0.3532254209
 C          0.2548170890       -1.0584055483        0.9063262881
 C          0.8028787045       -1.2408582771        2.1705007214
 C          1.7406044352       -0.3519834645        2.6679747242
 C          2.1550062388        0.7308097507        1.9139328224
 C          1.6169702932        0.9187871163        0.6466819955
 C          0.6751264508        0.0284027426        0.1513145453
 H          0.2631931053        0.1780615279       -0.8358635864
 N          2.0433103080        2.0058123900       -0.1365796287
 S          3.6941183581        2.2670009588       -0.2474123530
 O          4.1426746524        2.9957454497        0.9133327568
 O          3.8950039656        2.9227387020       -1.5200200358
 C          4.4219302849        0.6381161415       -0.2536522913
 C          4.1019438696       -0.2123807796       -1.2935317485
 C          4.6209617403       -1.4970088837       -1.2925620570
 C          5.4447409302       -1.9075522275       -0.2555815781
 C          5.7619612853       -1.0397088434        0.7775791223
 C          5.2454119724        0.2461362140        0.7820740250
 H          5.4641479912        0.9525198688        1.5660997556
 H          6.4049437018       -1.3610034003        1.5809708450
 H          5.8401339059       -2.9108664587       -0.2553451281
 H          4.3727636079       -2.1737008359       -2.0943444957
 H          3.4592879557        0.1374357624       -2.0865331651
 H          1.6069599633        2.0408563067       -1.0463958169
 H          2.8774750963        1.4381786464        2.2874237856
 H          2.1525737481       -0.5023739130        3.6538831464
 H          0.4778424643       -2.0782215322        2.7701266980
 H         -1.1269347112       -2.6330377690        1.1962513840
 C         -0.1598750573       -2.9911847430       -0.6636962195
 C          1.1389027016       -2.7595034491       -1.3694111291
 C          1.0455722547       -3.8100624447       -0.3066463473
 H          1.0688761826       -4.8491777487       -0.5972677234
 H          1.5224257749       -3.6015167264        0.6390840885
 H          1.2036106354       -3.0629984314       -2.4031425932
 H          1.6888016534       -1.8594353987       -1.1453189932
 H         -0.9328926171       -3.4901945049       -1.2401674006
