  62
        -98.94015502
 C         -2.5006855371       -1.1784003487       -0.0139979955
 C         -2.5594450247       -0.0096691231       -0.8109869804
 C         -3.8990275588        0.5607883454       -1.0026339929
 C         -4.9698779498       -0.0445149214       -0.4579284848
 C         -6.3992808110        0.4104343325       -0.5764066341
 C         -6.7954968146        1.4891050844        0.4414015813
 C         -6.2107723209        2.8779297125        0.1805094068
 H         -6.4210068963        3.1721730198       -0.8481415051
 H         -6.7393557521        3.5752180252        0.8335007709
 C         -4.7043259937        2.9931284998        0.4530692187
 H         -4.3782568525        2.1495455403        1.0658728333
 H         -4.5058832948        3.9005155843        1.0278397204
 C         -3.8352966128        3.0541308152       -0.8031881777
 H         -4.0554084247        3.9690191704       -1.3577935391
 H         -2.7873179623        3.0897086677       -0.4940443963
 C         -4.0076638474        1.8570242335       -1.7471444342
 H         -4.9630334281        1.9205820118       -2.2674307077
 H         -3.2023857305        1.8836362777       -2.4853766115
 H         -6.5025622885        1.1521158061        1.4384004935
 H         -7.8848889599        1.5681565501        0.4239908641
 H         -6.5852720364        0.7752406163       -1.5868096388
 H         -7.0211363684       -0.4705154005       -0.4039522346
 O         -4.8724232186       -1.1856912688        0.2758740930
 C         -3.6405558261       -1.7631213243        0.5371874681
 O         -3.6916858968       -2.7783450250        1.2614003856
 H          1.3807082578       -0.9526972984       -0.4213911438
 C          0.9974105523       -0.4903726650        0.4723193945
 C         -0.2571834629       -0.8195776200        0.9576843940
 C         -0.7103686841       -0.1945071910        2.1174436414
 C          0.0702126612        0.7410927054        2.7669308339
 C          1.3231985819        1.0681438220        2.2786146604
 C          1.7840344467        0.4524548615        1.1212099347
 N          3.0350397665        0.7965601698        0.5857854456
 S          3.9384580306       -0.3621277608       -0.2401446223
 O          3.4355691879       -0.4906742988       -1.5842609132
 O          4.0121692950       -1.5811750394        0.5343828116
 C          5.5255763856        0.4506715070       -0.2709454765
 C          6.5112333009        0.0653595333        0.6175895051
 C          7.7286468040        0.7281234057        0.5968313464
 C          7.9369180111        1.7612388168       -0.3043321201
 C          6.9379215384        2.1365251324       -1.1906946898
 C          5.7194467457        1.4769210188       -1.1766531012
 H          4.9172718905        1.7270810280       -1.8514609518
 H          7.1043201025        2.9385784103       -1.8916081734
 H          8.8846323274        2.2759450058       -0.3183432773
 H          8.5085043709        0.4366565382        1.2818009709
 H          6.3058713299       -0.7472877786        1.2956443822
 H          3.6072122217        1.3269021832        1.2283609689
 H          1.9336532802        1.8013112626        2.7835423271
 H         -0.2962905110        1.2176005507        3.6639105833
 H         -1.6894456810       -0.4540475810        2.4985296179
 C         -1.1593475865       -1.8247167374        0.2833073225
 H         -1.3616022487       -2.6354804420        0.9989375369
 C         -0.5684460872       -2.4245562149       -0.9744385235
 C          0.4194391684       -3.5465346374       -0.8759938272
 C         -0.9665289979       -3.8098526180       -1.3817321767
 H         -1.1016915911       -4.0196980078       -2.4320869198
 H         -1.6551366002       -4.3372467616       -0.7374757512
 H          0.6784037608       -3.8983790228        0.1115518117
 H          1.2420580977       -3.5701801237       -1.5753765302
 H         -0.4283896732       -1.6928149973       -1.7624505230
 O         -1.5521222841        0.5325932629       -1.3354169944
