  62
        -98.94503086
 C          0.6714332505        1.6344868384       -1.1063195508
 C          1.9488096727        1.8932775808       -0.5481371140
 C          2.9582678112        0.8429321977       -0.7093208249
 C          2.6347864188       -0.2949656242       -1.3484262095
 C          3.5372038274       -1.4790467050       -1.5659615339
 C          3.6014793044       -2.4263549284       -0.3597599033
 C          4.4274673350       -1.9162526691        0.8217708944
 H          5.4011096648       -1.5748337146        0.4673802457
 H          4.5997559091       -2.7683683759        1.4826423485
 C          3.7475627797       -0.8019456584        1.6298672371
 H          3.8550062395       -1.0127865977        2.6970906872
 H          2.6747160488       -0.7995177737        1.4199999734
 C          4.3142205374        0.5978628334        1.3897208373
 H          5.3430241965        0.6432048645        1.7560282080
 H          3.7179071733        1.3085472945        1.9679060141
 C          4.3003956988        1.0506965101       -0.0754092326
 H          5.0709694614        0.5240248543       -0.6385769561
 H          4.5166313458        2.1219562112       -0.1019233410
 H          4.0363542381       -3.3682490266       -0.7033613290
 H          2.5839145215       -2.6307898300       -0.0156721265
 H          4.5423372496       -1.1386205963       -1.8171183981
 H          3.1325734781       -2.0286523638       -2.4187426916
 O          1.4129786983       -0.4953313872       -1.9017871637
 C          0.3910945052        0.4408470173       -1.7731748288
 O         -0.6744405391        0.0836041533       -2.3066297770
 O          2.2322000672        2.9635531471        0.0569080373
 C         -0.4100671597        2.6642930992       -0.8254179374
 C         -1.0357417534        2.3424732569        0.5094674094
 C         -1.2303673884        3.3129392605        1.4845041926
 C         -1.7400831009        2.9674628773        2.7246792980
 C         -2.0318717455        1.6491744061        3.0271040374
 C         -1.8403829262        0.6721636417        2.0565546585
 C         -1.3809824682        1.0304525805        0.8000265881
 H         -1.2514777672        0.2666393016        0.0506666127
 N         -2.0985382286       -0.6828600294        2.3081849665
 S         -1.1049773986       -1.8382364053        1.6043653900
 O         -1.2516098899       -2.9996057600        2.4605679214
 O          0.2468273254       -1.3567544048        1.4382494051
 C         -1.8512339959       -2.2070784162        0.0330429595
 C         -1.0450740503       -2.6885951151       -0.9774037780
 C         -1.6195410566       -3.0288127035       -2.1907112269
 C         -2.9850920299       -2.8828622887       -2.3703573818
 C         -3.7824773115       -2.4008761296       -1.3440278296
 C         -3.2144335983       -2.0622341872       -0.1270336842
 H         -3.8035132584       -1.6771451173        0.6889064274
 H         -4.8442027839       -2.2822984008       -1.4902765557
 H         -3.4285688450       -3.1402295369       -3.3193795053
 H         -0.9957865891       -3.3919102322       -2.9916379257
 H          0.0175352813       -2.7662854325       -0.8070202626
 H         -2.3275260207       -0.9126227142        3.2641957464
 H         -2.3939162113        1.3753429821        4.0062982066
 H         -1.8873190567        3.7297437477        3.4746783104
 H         -0.9570969428        4.3368603629        1.2759307762
 H          0.1224437375        3.6229726783       -0.7181115808
 C         -1.4276513823        2.8257005402       -1.9430667735
 C         -2.8260526703        2.2997219673       -1.8602852805
 C         -2.5782566200        3.7742532107       -1.7763154280
 H         -2.8594051312        4.3966119769       -2.6121705024
 H         -2.6979051847        4.2458426781       -0.8126461185
 H         -3.2582241778        1.8905804983       -2.7600798508
 H         -3.1195144936        1.7772953262       -0.9633721760
 H         -0.9597301551        2.7921972757       -2.9213127742
