  62
        -98.94513873
 C         -1.5344135097       -0.8087830379        0.0022144591
 C         -2.8103876271       -1.4174479517        0.0421435929
 C         -3.9081711182       -0.5722827329        0.5312969991
 C         -3.6434216493        0.6876485631        0.9233585290
 C         -4.6744277811        1.6724953887        1.3921572602
 C         -5.2175744781        2.5064589103        0.2234726776
 C         -5.6503955827        1.6716217780       -0.9817657554
 H         -6.0450630308        2.3615065409       -1.7308715275
 H         -4.7712468542        1.1919373255       -1.4179951058
 C         -6.7053810859        0.6019113139       -0.6669927611
 H         -7.1920829517        0.8287734394        0.2823086369
 H         -7.4756801454        0.6309047462       -1.4406392181
 C         -6.1657907592       -0.8291701913       -0.6300228822
 H         -5.5976239737       -1.0301230671       -1.5418628188
 H         -7.0181295617       -1.5138896130       -0.6188349728
 C         -5.2826827912       -1.1785028584        0.5746057759
 H         -5.7967014289       -0.9059914549        1.4987598852
 H         -5.1321986552       -2.2622212714        0.5723914247
 H         -6.0634945945        3.0951310096        0.5831398558
 H         -4.4361794521        3.1969688699       -0.1016876175
 H         -5.4874534505        1.1367423031        1.8782180816
 H         -4.2068837547        2.3405639198        2.1172970068
 O         -2.3992931057        1.2291634126        0.8937699221
 C         -1.3124129528        0.5015654324        0.4280054517
 O         -0.2326876815        1.1179729404        0.4478549590
 O         -3.0202722270       -2.6107768800       -0.3079373144
 C         -0.3500108997       -1.6054344507       -0.5124073671
 C          0.7431438858       -1.6398598739        0.5258412937
 C          0.4208564624       -1.9801939874        1.8376309677
 C          1.3898439608       -1.9976151701        2.8210586312
 C          2.7002261601       -1.6662292749        2.5221134098
 C          3.0355321328       -1.3415393021        1.2139131184
 C          2.0623013702       -1.3441385728        0.2231738397
 H          2.3557408593       -1.1136850950       -0.7861725558
 N          4.3561433740       -1.0219653163        0.8756772147
 S          4.7057125194        0.0074601114       -0.3893155067
 O          4.5450674983       -0.6807896433       -1.6462681364
 O          6.0463427428        0.4720533505       -0.1000081140
 C          3.5612773169        1.3706096633       -0.2837526685
 C          2.8162152398        1.7171399036       -1.3912071699
 C          1.9492304901        2.7934063370       -1.3069759478
 C          1.8404034185        3.4993791925       -0.1206822814
 C          2.5974420738        3.1406253057        0.9826555729
 C          3.4685616554        2.0675269730        0.9034916747
 H          4.0727580451        1.7689697943        1.7450466239
 H          2.5042048274        3.6896487566        1.9060043981
 H          1.1553867946        4.3297307501       -0.0542012355
 H          1.3535190879        3.0709635239       -2.1624075864
 H          2.9249909613        1.1359950693       -2.2938042550
 H          4.9881021034       -0.9045711269        1.6530564806
 H          3.4560944361       -1.6650652422        3.2922765129
 H          1.1230353486       -2.2613087687        3.8334963133
 H         -0.6053857335       -2.2246694715        2.0763611350
 H         -0.7225450777       -2.6299780826       -0.6612296729
 C          0.1082325558       -1.0516867829       -1.8453877830
 C          0.7927473717       -1.9392767866       -2.8400171211
 C         -0.6050477982       -1.4635790239       -3.0966971823
 H         -0.7669690725       -0.7240217100       -3.8665391331
 H         -1.4128917519       -2.1738673930       -2.9967236431
 H          1.5994098286       -1.5302174041       -3.4303243854
 H          0.9343210656       -2.9750020979       -2.5700208335
 H          0.4344846449       -0.0196784480       -1.7713687955
