  62
        -98.94491782
 C         -1.9580567458       -0.8543385890        0.0730125659
 C         -2.2648911508        0.1072615175        1.0629199541
 C         -2.3735872531        1.4957540324        0.5992956790
 C         -2.1449163584        1.7745676920       -0.6972447495
 C         -2.2526723935        3.1403429857       -1.3109169256
 C         -3.6662455533        3.4017690302       -1.8498485298
 C         -4.7770848437        3.0733493019       -0.8523486616
 H         -5.7270216413        3.3228781401       -1.3297106304
 H         -4.7813941415        1.9967553842       -0.6677474031
 C         -4.6668377841        3.8156307767        0.4866768554
 H         -5.6533023355        4.1969690713        0.7582148039
 H         -4.0040646731        4.6750338993        0.3803252879
 C         -4.1881268498        2.9499016673        1.6535612349
 H         -4.3529564219        3.5057548214        2.5803257428
 H         -4.7902673998        2.0394337931        1.7058011741
 C         -2.7085932237        2.5451363011        1.6219024752
 H         -2.0842803065        3.4304858031        1.4820371925
 H         -2.4608615805        2.1044273252        2.5923396276
 H         -3.8139285812        2.7887393322       -2.7417939264
 H         -3.7347038028        4.4510908236       -2.1422781761
 H         -1.9912318862        3.8875243790       -0.5638064599
 H         -1.5380245073        3.1998741726       -2.1337658648
 O         -1.8357917637        0.8263309294       -1.6178984914
 C         -1.7231451944       -0.5066735310       -1.2574514951
 O         -1.4301750122       -1.2716993667       -2.1968267468
 H          0.4603397336       -0.9223206759        0.8752521835
 C          0.6679809749       -1.8808124579        0.4204766912
 C         -0.3781627923       -2.7530606733        0.1465596721
 C         -0.0821247481       -3.9854028910       -0.4212226611
 C          1.2252018891       -4.3132595201       -0.7376102971
 C          2.2563668419       -3.4219140592       -0.5080369095
 C          1.9724657536       -2.1939567289        0.0802798574
 N          2.9967177307       -1.2690951677        0.3540768962
 S          2.6356192419        0.3764461977        0.2259523756
 O          2.0140097454        0.8118004864        1.4527228082
 O          1.9097131002        0.6455541800       -0.9951188293
 C          4.2859914693        1.0466674717        0.1285105321
 C          5.0179196695        1.1718791767        1.2944477412
 C          6.3140242036        1.6570143355        1.2227897891
 C          6.8541001082        2.0062033437       -0.0062835160
 C          6.1068618385        1.8772360656       -1.1673457511
 C          4.8101889233        1.3910533844       -1.1028771426
 H          4.1881195236        1.2792250954       -1.9766812645
 H          6.5275585455        2.1524403297       -2.1210393962
 H          7.8628794032        2.3839149631       -0.0595440627
 H          6.8968240894        1.7610942227        2.1236739921
 H          4.5513271386        0.8962023967        2.2257161210
 H          3.8589069179       -1.4923157794       -0.1252835756
 H          3.2711829530       -3.6697245736       -0.7796524366
 H          1.4409584592       -5.2707981324       -1.1868628279
 H         -0.8762752268       -4.6834648737       -0.6297247226
 C         -1.7798925250       -2.3048649451        0.4821895466
 H         -1.8943483658       -2.3174850482        1.5770752200
 C         -2.8571934128       -3.1736197051       -0.1328253824
 C         -3.3353220121       -4.4046857540        0.5760780530
 C         -4.2159388743       -3.1950879109        0.4987210739
 H         -5.0827860309       -3.2247922997       -0.1441467853
 H         -4.3541999646       -2.6024709553        1.3914192229
 H         -2.8831286307       -4.6403180108        1.5275394226
 H         -3.6020197834       -5.2683502807       -0.0141332049
 H         -2.8072646477       -3.1882963607       -1.2159517811
 O         -2.4376417249       -0.1835801937        2.2791873728
