  62
        -98.94510864
 C         -1.5023033504       -1.5042743367       -0.3644535156
 C         -2.7531673502       -1.4057280787        0.2984714193
 C         -3.6487731958       -0.3423500599       -0.1672695487
 C         -3.2710333996        0.4471420268       -1.1888431664
 C         -4.0721073372        1.5739220710       -1.7825137874
 C         -3.9272511369        2.9037920096       -1.0297017981
 C         -4.6276754504        2.9627257493        0.3282688506
 H         -4.6266552439        4.0079512380        0.6436435437
 H         -5.6686145215        2.6597218000        0.2115495539
 C         -3.9626373388        2.1161619025        1.4228392155
 H         -2.9440944748        1.8608860784        1.1209802843
 H         -3.8856087866        2.7032987088        2.3405445393
 C         -4.7118212230        0.8297600529        1.7712120645
 H         -5.6859026676        1.0767221026        2.1991500700
 H         -4.1365977351        0.2938136754        2.5303545344
 C         -4.9264045564       -0.1183408131        0.5835958365
 H         -5.2601431120       -1.0841611817        0.9705821360
 H         -5.6949519511        0.2765875141       -0.0803808840
 H         -2.8641521904        3.1185843335       -0.8995797516
 H         -4.3477956369        3.6856417007       -1.6662545657
 H         -3.7059141667        1.7128577872       -2.8021362355
 H         -5.1244110690        1.2923413131       -1.8274686597
 O         -2.0823378182        0.2931881905       -1.8280418527
 C         -1.1600022493       -0.6618095232       -1.4205210441
 O         -0.1045948439       -0.6493251056       -2.0832691156
 O         -3.1013820948       -2.1690681807        1.2377043421
 C         -0.5081560859       -2.5309041386        0.1559096699
 C          0.5141659610       -1.8046227526        0.9987877920
 C          0.1542870303       -1.4293058368        2.2919003756
 C          1.0382978794       -0.7467445630        3.1037797450
 C          2.2996279373       -0.4179939578        2.6386359339
 C          2.6671575689       -0.7790522692        1.3483771665
 C          1.7774958404       -1.4696541927        0.5337861696
 H          2.0832148779       -1.7260103509       -0.4672243818
 N          3.9523331359       -0.4643779531        0.8654853474
 S          4.0936755162        0.4021137429       -0.5621908857
 O          3.7237303908       -0.4236435637       -1.6801161090
 O          5.4578681113        0.8874204437       -0.5522162665
 C          2.9697219070        1.7693148121       -0.3470204156
 C          1.6650638268        1.6563733382       -0.7791428400
 C          0.7845059330        2.6945722441       -0.5152588279
 C          1.2176450431        3.8182561069        0.1700750360
 C          2.5356919379        3.9175822618        0.5913170278
 C          3.4201047392        2.8827328773        0.3368009437
 H          4.4541009358        2.9222838252        0.6396559733
 H          2.8724204140        4.7954046484        1.1188900215
 H          0.5256584018        4.6203357542        0.3738669613
 H         -0.2375426806        2.6077805919       -0.8518271060
 H          1.3506751086        0.7744234383       -1.3155211250
 H          4.5527851547       -0.0506410879        1.5655620631
 H          2.9977454312        0.1103389615        3.2702201153
 H          0.7458777447       -0.4680411156        4.1046652734
 H         -0.8345973253       -1.6817571949        2.6479326998
 H         -1.0918737531       -3.1744499976        0.8294623431
 C          0.0926959318       -3.3959131960       -0.9290690151
 C          0.7583361185       -4.6823465769       -0.5446692944
 C         -0.5571782263       -4.7042947236       -1.2618344837
 H         -0.5786151851       -5.0200668708       -2.2941517475
 H         -1.4384377232       -4.9824373285       -0.7021362276
 H          1.6447103811       -4.9831544318       -1.0821802715
 H          0.7689859742       -4.9446535303        0.5026320871
 H          0.5181098863       -2.8345196537       -1.7513992790
