  62
        -98.94176192
 C          2.2661732767        1.1672471916        0.3325660427
 C          1.9519492085        0.2585772129       -0.7086669792
 C          2.5880024261       -1.0659938017       -0.6145768067
 C          3.3555655219       -1.3608023618        0.4493928247
 C          3.9985652999       -2.6928290274        0.7029249899
 C          3.0748998435       -3.6076917882        1.5199513082
 C          1.6497216800       -3.6966585519        0.9730324937
 H          1.1012110241       -4.3932973065        1.6107918817
 H          1.1668119709       -2.7214917350        1.0722063445
 C          1.5607788519       -4.1574598680       -0.4883643131
 H          2.4948964298       -4.6379216541       -0.7815368768
 H          0.7723845537       -4.9080063753       -0.5725299438
 C          1.2279696573       -3.0437630836       -1.4824688604
 H          0.3450388564       -2.4975170839       -1.1423486116
 H          0.9802027716       -3.5069599333       -2.4406998262
 C          2.3450272986       -2.0270026067       -1.7443610573
 H          3.2674207231       -2.5487110219       -2.0080502053
 H          2.0385745973       -1.4147821835       -2.5974322745
 H          3.5174972888       -4.6050085744        1.5506869023
 H          3.0272460934       -3.2266633029        2.5429363835
 H          4.2415753717       -3.1607634039       -0.2490632059
 H          4.9209876407       -2.5294054756        1.2628739188
 O          3.5864153907       -0.4824790926        1.4593792222
 C          3.0507023851        0.7947145179        1.4268508650
 O          3.3305065779        1.4909298038        2.4240471119
 H         -0.1607028529        1.3107684207        1.7263689573
 C         -0.5998798155        1.8378888617        0.8873738311
 C          0.2308474241        2.5603294411        0.0389413188
 C         -0.3393338948        3.2258862517       -1.0374376123
 C         -1.7064881194        3.1725969534       -1.2464268001
 C         -2.5314943795        2.4639373192       -0.3929026804
 C         -1.9703072868        1.7821519143        0.6800826866
 N         -2.7874762851        1.0733119077        1.5760105370
 S         -4.0689205344        0.1359528694        1.0598011376
 O         -5.0786684980        0.9833200364        0.4771178251
 O         -4.4619912890       -0.6158125822        2.2299017992
 C         -3.4176124613       -0.9727539769       -0.1742489437
 C         -3.4779375948       -0.6308210995       -1.5098217880
 C         -2.9496975202       -1.5034551062       -2.4480642992
 C         -2.3783985321       -2.6972780044       -2.0377824791
 C         -2.3265484685       -3.0272509767       -0.6916824176
 C         -2.8449185833       -2.1554174225        0.2510964983
 H         -2.8336184707       -2.3793859799        1.3059016158
 H         -1.8823129394       -3.9573054682       -0.3749198450
 H         -1.9701911285       -3.3755615445       -2.7701702935
 H         -2.9851169407       -1.2481108207       -3.4947719311
 H         -3.9431140058        0.2980669491       -1.7943636540
 H         -2.2808570069        0.6081797468        2.3140711520
 H         -3.5993487564        2.4341657878       -0.5351766395
 H         -2.1380137922        3.6948944613       -2.0868994967
 H          0.2875702871        3.7700929615       -1.7240234309
 C          1.7070577909        2.5796571698        0.3530657064
 H          1.8174020525        2.9121659249        1.3989710448
 C          2.4904611084        3.5708008510       -0.4950296194
 C          3.9609075771        3.3932488731       -0.7255517119
 C          2.9997780768        3.2369365134       -1.8635684531
 H          2.9753334791        4.0077085100       -2.6201198626
 H          2.8045800591        2.2467620422       -2.2426500644
 H          4.5931821376        4.2680537477       -0.6984941510
 H          4.4275363453        2.5064252679       -0.3212349422
 H          2.1521702088        4.5902846140       -0.3361128963
 O          1.1870236003        0.5233617651       -1.6700663228
