  62
        -98.93560809
 C          1.8494260279        0.7238931950       -0.0313659822
 C          2.6028710212        0.2473063104        1.0688592362
 C          3.7227144193       -0.6624710484        0.7701206647
 C          3.9451533833       -1.0350047752       -0.5038155186
 C          4.9742378165       -1.9695155804       -1.1050230736
 C          6.1833353100       -2.4270243856       -0.2932675970
 C          7.1896785070       -1.3237201452        0.0329143033
 H          7.9500614439       -1.7405419422        0.6968951427
 H          7.6859543755       -1.0221620184       -0.8929839175
 C          6.6065671690       -0.0662676353        0.6727726707
 H          7.4284718358        0.6348901131        0.8410782508
 H          5.9148042682        0.4118682391       -0.0239232367
 C          5.8983036565       -0.2806654564        2.0089706691
 H          5.6751073365        0.7054308705        2.4254025211
 H          6.5689916519       -0.7913946637        2.7025905063
 C          4.5758367888       -1.0636755364        1.9389796935
 H          3.9959638324       -0.8284596495        2.8363823279
 H          4.7511768264       -2.1369099143        1.9367881781
 H          6.7000696168       -3.1749650715       -0.9009089659
 H          5.8600030519       -2.9293875236        0.6137737453
 H          4.4166949476       -2.8564987250       -1.4263152953
 H          5.3224880178       -1.4791953248       -2.0198003087
 O          3.1462998879       -0.6073505362       -1.5241677331
 C          2.0921415630        0.2749405315       -1.3292351850
 O          1.4754178202        0.5572384892       -2.3719267534
 O          2.3435457525        0.5599533421        2.2621821890
 C          0.7074225776        1.6814502544        0.2573518952
 C         -0.5463230739        1.2210872007       -0.4425774474
 C         -1.2339381909        1.9823173451       -1.3773963445
 C         -2.3726145215        1.4829420414       -1.9863948971
 C         -2.8527412870        0.2251386246       -1.6745130403
 C         -2.1778181655       -0.5412296317       -0.7319496874
 C         -1.0424280495       -0.0364964884       -0.1180709224
 H         -0.5131878255       -0.6378846132        0.6113697327
 N         -2.6616162015       -1.8176742068       -0.4003273327
 S         -4.3074299648       -2.0074546715       -0.1721332791
 O         -4.4352499925       -3.1295353191        0.7315709269
 O         -4.9640763901       -2.1504817992       -1.4476054899
 C         -4.8482808354       -0.5022936132        0.6192114362
 C         -5.7854137473        0.3026223692        0.0045372838
 C         -6.1669180306        1.4814796323        0.6252218317
 C         -5.6038854599        1.8349588041        1.8413665908
 C         -4.6658836662        1.0136337536        2.4483961888
 C         -4.2828246026       -0.1670903358        1.8336563113
 H         -3.5600740631       -0.8296835502        2.2826264487
 H         -4.2289813744        1.2895327162        3.3947708343
 H         -5.8972664909        2.7552375678        2.3211833911
 H         -6.8975834804        2.1209113794        0.1568255320
 H         -6.1949212875       -0.0088828794       -0.9425279155
 H         -2.1304215379       -2.2889627303        0.3162317061
 H         -3.7252174485       -0.1842321074       -2.1572916990
 H         -2.8895499756        2.0799460522       -2.7219934423
 H         -0.8633905103        2.9558028473       -1.6519965036
 H          0.5417949233        1.5816296372        1.3433817492
 C          1.0391378746        3.1448561650        0.0076765331
 C          2.4479718321        3.6447336846        0.1147266579
 C          1.7650916679        3.6090963769       -1.2179744844
 H          1.4677505625        4.5468031351       -1.6645072684
 H          2.0667903203        2.8617124638       -1.9346869831
 H          2.6193276618        4.6027820945        0.5821945078
 H          3.2237267901        2.9186862452        0.3110339642
 H          0.2676639821        3.8040823701        0.3934170031
