  62
        -98.93429057
 C         -2.4246058417       -1.0510055683       -0.0142444381
 C         -2.5383972887        0.3544948351        0.0844561411
 C         -3.8827557070        0.8851281135        0.3804782898
 C         -4.9127173312        0.0321721993        0.5341366742
 C         -6.3696676503        0.2769668651        0.8685822841
 C         -6.9679374321        1.6784243215        0.7782229430
 C         -7.0641701860        2.2434017573       -0.6385697424
 H         -7.8192669734        1.6759333366       -1.1882952188
 H         -7.4091381435        3.2774577906       -0.5710806335
 C         -5.7745390782        2.2028381265       -1.4546053661
 H         -5.9877972768        2.6297410562       -2.4384313706
 H         -5.4724504383        1.1656458366       -1.6138449792
 C         -4.5990907678        2.9750439368       -0.8587584968
 H         -3.8043570515        2.9957829046       -1.6095001003
 H         -4.8984713730        4.0060893421       -0.6607431351
 C         -4.0014394825        2.3812665597        0.4286321889
 H         -2.9820457637        2.7638607775        0.5355023920
 H         -4.5614359829        2.6942805817        1.3065078213
 H         -7.9848106564        1.6076324354        1.1737954493
 H         -6.4258005104        2.3618193720        1.4249448226
 H         -6.5048136842       -0.0914370028        1.8914586343
 H         -6.9394373273       -0.3975879508        0.2216395217
 O         -4.7469272510       -1.3211176294        0.4436319788
 C         -3.5188815626       -1.8934778490        0.1684924841
 O         -3.5309237765       -3.1402416252        0.1181685331
 O         -1.5648952331        1.1393092938       -0.0606824053
 C         -1.0833963255       -1.6869070823       -0.3315767066
 C         -0.0594652704       -1.2747407501        0.6977927432
 C         -0.3419997255       -1.4936539499        2.0442107757
 C          0.5645402819       -1.1360052504        3.0225910914
 C          1.7747580992       -0.5586267667        2.6799361910
 C          2.0643766683       -0.3310062944        1.3399766225
 C          1.1525030753       -0.6963129561        0.3585920007
 H          1.4049851646       -0.5122972220       -0.6716891239
 N          3.2674948369        0.2915220422        0.9711083344
 S          3.9966204572       -0.0937506387       -0.4986755582
 O          3.3194810156        0.6007753273       -1.5642181191
 O          4.1072423271       -1.5288525758       -0.6403436082
 C          5.6057577648        0.6316435914       -0.2433301169
 C          5.7216494085        2.0069363986       -0.3235992375
 C          6.9591790689        2.5890579142       -0.1014081698
 C          8.0546157830        1.7911405099        0.1951086108
 C          7.9234778924        0.4127492876        0.2694943800
 C          6.6877068761       -0.1761028789        0.0502047579
 H          6.5393786517       -1.2431510978        0.0918439470
 H          8.7775398635       -0.2045493494        0.4969712735
 H          9.0169877917        2.2469530151        0.3664994484
 H          7.0652597299        3.6602603142       -0.1610432439
 H          4.8445842973        2.5847320082       -0.5651728195
 H          3.9410580329        0.3235379740        1.7240152956
 H          2.4833957840       -0.2772493986        3.4440350600
 H          0.3308253925       -1.3123419507        4.0619230390
 H         -1.2881316783       -1.9468358417        2.3097734650
 H         -1.2336916435       -2.7734780600       -0.2450666799
 C         -0.6752456536       -1.3664426340       -1.7539280152
 C          0.2553765763       -2.2798627467       -2.4914957036
 C         -1.1923939100       -2.2164348819       -2.8735011395
 H         -1.4606282960       -1.7376294676       -3.8032679445
 H         -1.8283352530       -3.0492892560       -2.6100859558
 H          0.9883642843       -1.8423361192       -3.1531448255
 H          0.6082858730       -3.1583123596       -1.9720296215
 H         -0.5890038157       -0.3005467474       -1.9348112729
