  62
        -98.93484648
 C         -1.3152802095       -1.3542395779        0.7075950697
 C         -2.3116380644       -1.1974044641       -0.2854400061
 C         -2.9916274717        0.1128114673       -0.3112370059
 C         -2.6071561793        1.0836156408        0.5341452646
 C         -3.2440346593        2.4383329102        0.6607859014
 C         -4.5670641263        2.3312282848        1.4459828969
 C         -5.8152961530        2.6641197075        0.6284872548
 H         -6.6824062299        2.3459124503        1.2110606847
 H         -5.8800143271        3.7470939771        0.5044462723
 C         -5.8895258494        2.0286351657       -0.7630778641
 H         -6.9210805420        2.1328056016       -1.1062769632
 H         -5.2707484210        2.5964729219       -1.4597080739
 C         -5.4892876002        0.5500942860       -0.8472081697
 H         -5.6184874745        0.0608655415        0.1184266081
 H         -6.1648533153        0.0552889771       -1.5479800095
 C         -4.0570306153        0.3006529427       -1.3563224559
 H         -3.7604481933        1.1070979428       -2.0336988008
 H         -4.0481629313       -0.6291578028       -1.9334630363
 H         -4.6485316492        1.3158033018        1.8393085251
 H         -4.5337033580        3.0005404807        2.3069233430
 H         -2.5366430293        3.0793081206        1.1877323305
 H         -3.4141001397        2.8548691297       -0.3297051622
 O         -1.6200586787        0.9095210587        1.4494005856
 C         -0.9463093451       -0.2924635265        1.5386111870
 O         -0.0423030847       -0.3088944217        2.4000376464
 O         -2.6435184713       -2.0813116630       -1.1171783365
 C         -0.4540194627       -2.5971082699        0.8988130954
 C          0.9619734198       -2.2827857796        0.4814788313
 C          2.0554141085       -2.7790061012        1.1815948798
 C          3.3449673498       -2.4578867974        0.7958195111
 C          3.5672941024       -1.6013030526       -0.2676613228
 C          2.4795046950       -1.0888181344       -0.9634018908
 C          1.1916666533       -1.4588372737       -0.6103853036
 H          0.3596866286       -1.0518880993       -1.1660660478
 N          2.6386165376       -0.1454232740       -2.0033772804
 S          2.0814224864        1.3948632705       -1.6269697686
 O          0.6750914502        1.3490530450       -1.3235722768
 O          2.4722023493        2.2238036592       -2.7471609827
 C          3.0355294496        1.8479596017       -0.1888276343
 C          2.6345406331        1.4128840119        1.0585130176
 C          3.4391685275        1.6955107591        2.1522435577
 C          4.6211675546        2.3992669619        1.9826041111
 C          5.0082930727        2.8309181542        0.7224925325
 C          4.2126573798        2.5481892563       -0.3754134534
 H          4.4703516830        2.8650587975       -1.3732779794
 H          5.9262127086        3.3811778990        0.5926200311
 H          5.2422155931        2.6127787822        2.8381987182
 H          3.1283224170        1.3553977417        3.1271088900
 H          1.7090407973        0.8694874522        1.1724703245
 H          3.5894471890       -0.0739890070       -2.3418040659
 H          4.5706263461       -1.3190179682       -0.5491011258
 H          4.1845189879       -2.8545466995        1.3455105300
 H          1.8895095313       -3.4019692738        2.0480758543
 H         -0.4321693409       -2.7903190795        1.9852893629
 C         -0.9906635485       -3.8510747282        0.2284268190
 C         -0.4917994597       -4.3334471952       -1.0968948240
 C         -0.1557677377       -5.0948015454        0.1483787133
 H         -0.6395940566       -6.0447748747        0.3173491627
 H          0.8626492008       -5.0462307440        0.5013538966
 H         -1.2150704245       -4.7412429576       -1.7860076735
 H          0.2919698542       -3.7670543948       -1.5772215041
 H         -2.0482064851       -3.9901836779        0.4201656345
