  62
        -98.94482736
 C          2.0179049372        1.3759535601        0.2927873887
 C          2.6431085594        0.7575401066       -0.8172096230
 C          3.7905392577       -0.1027441242       -0.5010236251
 C          4.1917266295       -0.2447261635        0.7752919659
 C          5.3564815270       -1.0701879444        1.2508601823
 C          5.0267571469       -2.5556060228        1.4530134991
 C          4.8293629960       -3.3594188817        0.1670205156
 H          5.6849469264       -3.2058177507       -0.4912135849
 H          4.8190832390       -4.4147145552        0.4469697705
 C          3.5322390122       -3.0373492000       -0.5887590164
 H          2.8428201860       -2.5120551297        0.0766940995
 H          3.0408677845       -3.9672016010       -0.8844351112
 C          3.7260840430       -2.2044709254       -1.8561495140
 H          4.3013832498       -2.7779603488       -2.5862797604
 H          2.7414169545       -2.0023848610       -2.2862270491
 C          4.4283646942       -0.8596716510       -1.6262170886
 H          5.4887772732       -1.0167934078       -1.4304207690
 H          4.3228819154       -0.2593362346       -2.5330397857
 H          4.1299128913       -2.6338640073        2.0722267007
 H          5.8542459384       -3.0004336739        2.0104606224
 H          6.1855704271       -0.9725638232        0.5497182658
 H          5.6624241909       -0.6521282408        2.2123263013
 O          3.5700827968        0.3781034749        1.8123924851
 C          2.4552990289        1.1750221266        1.6010410313
 O          1.9484452186        1.6376129007        2.6441693347
 H         -0.0539044693       -0.1525393528        0.7786797932
 C         -0.6037944237        0.2133084046       -0.0803813275
 C         -0.2919097340        1.4655338175       -0.5969687751
 C         -1.0175845637        1.9303926645       -1.6852219399
 C         -2.0012928016        1.1432284694       -2.2602294052
 C         -2.2902275101       -0.1122694402       -1.7598198403
 C         -1.5860044719       -0.5773283841       -0.6555897209
 N         -1.8868752747       -1.8425600791       -0.1239168817
 S         -3.4994633884       -2.2519621066        0.0575421611
 O         -3.5303907987       -3.1869381245        1.1605554397
 O         -4.0195278162       -2.7416805898       -1.1947629707
 C         -4.3261122801       -0.7332558509        0.4986685051
 C         -3.9115009266       -0.0725241268        1.6381599202
 C         -4.5219644288        1.1232814418        1.9791403351
 C         -5.5325924348        1.6350696477        1.1794060519
 C         -5.9419155587        0.9566481564        0.0421992795
 C         -5.3326533788       -0.2385053474       -0.3052691772
 H         -5.6163648262       -0.7966316651       -1.1825997857
 H         -6.7294049571        1.3558770104       -0.5763163874
 H         -6.0030280699        2.5680718457        1.4465890186
 H         -4.2037353952        1.6516522011        2.8636349385
 H         -3.1256847440       -0.4972854519        2.2426332628
 H         -1.3513773149       -2.0837065629        0.6964812073
 H         -3.0385522246       -0.7445213687       -2.2094591849
 H         -2.5475407080        1.5115937670       -3.1148842222
 H         -0.8055664021        2.9047620216       -2.0928119301
 C          0.8017246913        2.2586476452        0.0777815559
 H          0.4487658894        2.5402228333        1.0807378368
 C          1.1918953950        3.5154415532       -0.6714229962
 C          0.4275335651        4.7870177597       -0.4617035395
 C          1.8129059861        4.6454961920        0.0914209724
 H          2.6151198917        5.2007426472       -0.3709912287
 H          1.9307886357        4.5173446935        1.1579120789
 H         -0.3984652364        4.7654247777        0.2327823695
 H          0.2798957907        5.4452812883       -1.3044577003
 H          1.5820433782        3.3057334329       -1.6605538461
 O          2.2659369881        0.9123444985       -2.0068778524
