  62
        -98.93480234
 C         -2.5035290996       -0.3782204673        0.1650219103
 C         -2.5283421867        0.7388428207        1.0331141750
 C         -2.3367387407        2.0666330120        0.4266967576
 C         -2.1106101626        2.1577282704       -0.8968100096
 C         -1.8977996644        3.3584672287       -1.7949427499
 C         -1.6161491646        4.7354222351       -1.2010076237
 C         -0.2603455687        4.8642054899       -0.5066060148
 H          0.5230351740        4.8299032587       -1.2677182177
 H         -0.2150947391        5.8429621455       -0.0236225851
 C          0.0643920168        3.7876296634        0.5268929412
 H          1.0606322857        3.9980494913        0.9276005557
 H          0.1269002215        2.8086946684        0.0445762404
 C         -0.8974245669        3.7037146596        1.7107224891
 H         -0.9616258415        4.6768306548        2.2027375031
 H         -0.4713717856        2.9928715228        2.4252035084
 C         -2.3215474107        3.2279947858        1.3784624249
 H         -2.7810708405        2.8710974257        2.3051683804
 H         -2.9333412671        4.0444198974        1.0022124039
 H         -1.6262799809        5.4422343350       -2.0352362863
 H         -2.4193334010        5.0276533995       -0.5309398057
 H         -1.0759569051        3.0819295101       -2.4631295418
 H         -2.7958479249        3.4256261517       -2.4192737210
 O         -2.0888382846        1.0525419682       -1.6958705967
 C         -2.2352627741       -0.2306561622       -1.1958058244
 O         -2.1177631574       -1.1212311357       -2.0584973893
 O         -2.7019461796        0.6319304881        2.2791007583
 C         -2.5801942234       -1.7609167407        0.7876708688
 C         -1.3958378485       -2.5776870567        0.3299071936
 C         -1.4700635065       -3.8928764811       -0.1054502337
 C         -0.3226771430       -4.5619929511       -0.5003286087
 C          0.9088098871       -3.9360427997       -0.4887982546
 C          0.9910885150       -2.6115161547       -0.0666848229
 C         -0.1498363211       -1.9619851260        0.3661034479
 H         -0.0739392004       -0.9424562870        0.7171267065
 N          2.2132768995       -1.9211927012       -0.1176995820
 S          2.3602778804       -0.3444993997        0.4326563580
 O          2.1361886072       -0.2705873966        1.8617961609
 O          1.5510284082        0.5161611118       -0.3926563559
 C          4.0883681569       -0.0753295164        0.0871907896
 C          5.0177298881       -0.2560761870        1.0940256702
 C          6.3618304760       -0.0756407156        0.8074886551
 C          6.7521782090        0.2786037719       -0.4750971711
 C          5.8080669716        0.4584240577       -1.4752850998
 C          4.4627252628        0.2795311453       -1.1947875832
 H          3.6918722795        0.4149020814       -1.9359281309
 H          6.1144667128        0.7369127755       -2.4706720324
 H          7.7984090979        0.4186613898       -0.6962998034
 H          7.0973229412       -0.2114296060        1.5839045993
 H          4.6658217186       -0.5209049516        2.0780996994
 H          3.0305797924       -2.4889038072        0.0480356505
 H          1.7967005506       -4.4541341814       -0.8158632084
 H         -0.3932111037       -5.5862608999       -0.8339597176
 H         -2.4242102483       -4.3915871968       -0.1519244355
 H         -2.4528776867       -1.5735794102        1.8687421792
 C         -3.9160452563       -2.4707409840        0.6298443435
 C         -5.1650943667       -1.7085458124        0.3052432200
 C         -4.5769392454       -2.6468996204       -0.7032157756
 H         -5.0938489623       -3.5750430519       -0.8988856519
 H         -4.0757306354       -2.2310638595       -1.5625946761
 H         -6.0812046157       -1.9897297846        0.8028943965
 H         -5.0698156208       -0.6464838100        0.1296606962
 H         -4.0281110454       -3.2858349033        1.3384694509
