  62
        -98.94334852
 C         -2.2860061913       -0.5526638312        0.0386622888
 C         -3.2045997795       -0.2701135406        1.0858778953
 C         -4.1776255357        0.7996270821        0.8366733201
 C         -4.1383060833        1.4597196183       -0.3346292443
 C         -5.1028467763        2.5314080286       -0.7501991364
 C         -6.2992106871        1.9375104856       -1.5072349285
 C         -6.9461164903        0.7447610478       -0.8029679250
 H         -6.2372171503       -0.0863064417       -0.7855426135
 H         -7.7953996138        0.4290057204       -1.4127824834
 C         -7.4229324872        1.0337922654        0.6273116244
 H         -8.4215625965        0.6108160755        0.7552523532
 H         -7.5055604768        2.1104794363        0.7797552143
 C         -6.5411586839        0.4331669218        1.7237573802
 H         -6.3791211110       -0.6288117942        1.5226614584
 H         -7.0798875007        0.5078801091        2.6720846109
 C         -5.1739424431        1.1002516045        1.9208111992
 H         -4.7408124232        0.7046098353        2.8439727011
 H         -5.3036353762        2.1781644688        2.0362263483
 H         -5.9575593496        1.6092461972       -2.4916765512
 H         -7.0419002639        2.7244301138       -1.6506131717
 H         -5.4471726337        3.0649440654        0.1336014382
 H         -4.5802191251        3.2302731080       -1.4054501217
 O         -3.2306096787        1.1833749386       -1.3027755318
 C         -2.2941160469        0.1703058868       -1.1539680517
 O         -1.5520314314        0.0400142268       -2.1497950345
 H          0.4099741633       -0.2127842058       -1.1957385329
 C          0.8288053978       -0.4769763069       -0.2357895944
 C          0.0667244175       -1.2161773475        0.6579455317
 C          0.6195293946       -1.5392917013        1.8917127757
 C          1.9020919549       -1.1344995507        2.2178961276
 C          2.6576445877       -0.3979612679        1.3234595155
 C          2.1126533500       -0.0648485290        0.0903638609
 N          2.8684403288        0.7005191034       -0.8196712379
 S          4.3523467435        0.0686761207       -1.2954459252
 O          4.6370731283        0.6788347485       -2.5758403087
 O          4.3473721476       -1.3760588661       -1.2590860982
 C          5.4961515727        0.7013116377       -0.0860211787
 C          6.2627281777       -0.1731477735        0.6592200422
 C          7.1542038490        0.3415693276        1.5877541265
 C          7.2631102761        1.7138569772        1.7528539649
 C          6.4877715963        2.5786710819        0.9944885017
 C          5.5955394323        2.0707983443        0.0637644717
 H          4.9778621895        2.7069324238       -0.5481491641
 H          6.5756781764        3.6452057992        1.1254272448
 H          7.9567166847        2.1121271145        2.4764696649
 H          7.7581854469       -0.3289377343        2.1777031884
 H          6.1390717724       -1.2323302597        0.4997059338
 H          2.3366234734        0.9761252144       -1.6337962398
 H          3.6565236359       -0.0781902258        1.5717855635
 H          2.3179609920       -1.3940944449        3.1793472831
 H          0.0322522392       -2.1059220105        2.5995761833
 C         -1.3156923404       -1.6961436879        0.2836328057
 H         -1.7253153377       -2.2315738989        1.1508448901
 C         -1.2357281389       -2.6660820787       -0.8805200787
 C         -0.7627042528       -4.0651350855       -0.6297231619
 C         -2.2029169213       -3.8073633347       -0.9549048543
 H         -2.5769779518       -4.1028273273       -1.9236907752
 H         -2.9288231958       -3.8991740573       -0.1600648315
 H         -0.5126163471       -4.3333979244        0.3854896100
 H         -0.1414768077       -4.5388706217       -1.3743472585
 H         -0.9479040672       -2.1976219969       -1.8130774341
 O         -3.2134991214       -0.8960776962        2.1788924532
