  62
        -98.94387363
 C          1.8082377113        1.1699242123        0.3407776099
 C          2.0405210671        0.2094123438       -0.6727106837
 C          3.4445943909        0.0301995497       -1.0727044486
 C          4.3987526859        0.7775916998       -0.4883075354
 C          5.8697849690        0.6580267352       -0.7608128252
 C          6.5329438825       -0.3383121473        0.2005374034
 C          5.8012357027       -1.6765127274        0.3045727879
 H          4.8230681974       -1.5148335399        0.7634616769
 H          6.3747566937       -2.3091169108        0.9855096580
 C          5.6154515234       -2.4040342920       -1.0342918617
 H          5.8656856537       -3.4582647127       -0.8981032250
 H          6.3066960716       -2.0002606068       -1.7749336887
 C          4.1912962283       -2.3533790326       -1.5911879118
 H          3.4829046180       -2.6694212365       -0.8206829676
 H          4.1209558471       -3.0720582354       -2.4122567578
 C          3.7346928907       -0.9932826323       -2.1340617254
 H          2.7906525468       -1.1489992728       -2.6649778702
 H          4.4712264695       -0.6148412727       -2.8459763764
 H          6.5671902658        0.1111033363        1.1956264310
 H          7.5588162856       -0.5078223724       -0.1313012192
 H          6.0184080087        0.3395120652       -1.7906482334
 H          6.3258381835        1.6398733582       -0.6236394075
 O          4.1327856717        1.7052363408        0.4664343039
 C          2.8386122466        1.9152843140        0.9137700688
 O          2.7367228256        2.7763804121        1.8107745455
 H         -2.0538264775        0.2525742476        0.3016301656
 C         -1.4625904100       -0.3064832001        1.0066613029
 C         -0.2015881250        0.1382711374        1.3714107116
 C          0.5294148374       -0.6105635908        2.2908907612
 C          0.0178516769       -1.7803987999        2.8162253410
 C         -1.2347650781       -2.2297811886        2.4355884752
 C         -1.9772342390       -1.4874746858        1.5263027774
 N         -3.2695459386       -1.8927718666        1.1611531961
 S         -3.7852213796       -1.7818612333       -0.4291059612
 O         -4.9272561968       -2.6713518883       -0.4880903874
 O         -2.7233396876       -2.0539314376       -1.3674971588
 C         -4.3655557387       -0.1085016297       -0.6049203564
 C         -5.2296902838        0.3962375445        0.3467967778
 C         -5.7205949092        1.6822843042        0.1889984578
 C         -5.3489873526        2.4341544340       -0.9154787540
 C         -4.4828457833        1.9112739966       -1.8639010223
 C         -3.9842487257        0.6268433078       -1.7093753684
 H         -3.2980877707        0.1845150711       -2.4147381749
 H         -4.1929763800        2.4968882365       -2.7221901006
 H         -5.7333984189        3.4345139465       -1.0380235969
 H         -6.3920385738        2.0942888561        0.9248531113
 H         -5.5002919548       -0.2205653650        1.1871583450
 H         -3.5704393402       -2.7620591015        1.5781228001
 H         -1.6342250250       -3.1475974247        2.8399864236
 H          0.5991839876       -2.3517932891        3.5244447818
 H          1.5098677717       -0.2602701563        2.5853437375
 C          0.3968640477        1.4186617691        0.8417930151
 H          0.4976081098        2.1173837022        1.6856605299
 C         -0.4392037175        2.0792280043       -0.2340790076
 C         -1.5557959186        3.0018932238        0.1498171113
 C         -0.2991782239        3.5550132592       -0.4504625974
 H         -0.3305525234        3.9322295397       -1.4614842655
 H          0.3889500478        4.0852866057        0.1919671267
 H         -1.7259432525        3.1637540391        1.2033809406
 H         -2.4547535679        3.0015518664       -0.4475428507
 H         -0.5639497265        1.4530284905       -1.1106229828
 O          1.1263274160       -0.4638815354       -1.2165956729
