  62
        -98.93788788
 C          2.0324461081        0.9247144149       -0.3625488406
 C          2.8399168410        0.6102242629        0.7612140887
 C          3.4462706003       -0.7254939500        0.7856739653
 C          3.1744133500       -1.5820907561       -0.2151204565
 C          3.7540061692       -2.9607296071       -0.3452512241
 C          5.0540046575       -2.9427018485       -1.1616369579
 C          6.0538530595       -1.8788893093       -0.7079079204
 H          6.9418456713       -1.9791098960       -1.3357586241
 H          5.6324916253       -0.8898629893       -0.9020196134
 C          6.4581947323       -1.9757962905        0.7697870096
 H          7.5413552374       -1.8592180516        0.8443139704
 H          6.2108013565       -2.9647412727        1.1569654793
 C          5.8325220322       -0.9086666655        1.6698848403
 H          6.3480535586       -0.9316608082        2.6335698955
 H          5.9963771468        0.0801373438        1.2343347143
 C          4.3327508882       -1.0675755964        1.9502220339
 H          4.1291618045       -2.0801512654        2.3045656994
 H          4.0654514026       -0.3644470439        2.7444114220
 H          4.8019107216       -2.7519283327       -2.2074020810
 H          5.5152217862       -3.9299185457       -1.0975608097
 H          3.9414467562       -3.3638883870        0.6481795446
 H          3.0230178925       -3.5928609133       -0.8524892433
 O          2.3707122305       -1.2628913327       -1.2594809939
 C          1.7792758450       -0.0063326115       -1.3714107355
 O          1.0952241036        0.1245783167       -2.4023738070
 H         -0.5884560729        0.4775611244       -0.2313285552
 C         -0.7514790474        1.3074414983        0.4412160192
 C          0.1805078878        2.3328360600        0.5139622396
 C         -0.0452614377        3.3824233394        1.3971900482
 C         -1.1863698369        3.4106066647        2.1786598041
 C         -2.1250995420        2.3999169770        2.0860466743
 C         -1.9014284060        1.3369808788        1.2167406313
 N         -2.8198541420        0.2788075515        1.1385466971
 S         -2.9901750179       -0.5495345543       -0.3227907103
 O         -1.9690526714       -1.5639844647       -0.3996322971
 O         -3.0698761075        0.3929791205       -1.4149994252
 C         -4.5792218747       -1.3159269039       -0.0599000076
 C         -4.6426348365       -2.4749695184        0.6904679005
 C         -5.8793542017       -3.0546118304        0.9251795421
 C         -7.0261111392       -2.4686850290        0.4096886052
 C         -6.9468989286       -1.3067551852       -0.3430821576
 C         -5.7130772988       -0.7213136835       -0.5805675951
 H         -5.6008547192        0.1764582032       -1.1669065241
 H         -7.8393281259       -0.8554559275       -0.7456270740
 H         -7.9871397276       -2.9224125328        0.5932414932
 H         -5.9439759748       -3.9596536979        1.5072921131
 H         -3.7234716356       -2.8976552468        1.0616751529
 H         -3.7130331674        0.4968991555        1.5586520111
 H         -3.0190137739        2.4215760332        2.6903647293
 H         -1.3497234486        4.2298463029        2.8620735095
 H          0.6887425187        4.1706124183        1.4775284909
 C          1.4121684043        2.3104473938       -0.3566793964
 H          2.1609332446        2.9590535069        0.1284437251
 C          1.1491310181        2.8847288382       -1.7400250372
 C         -0.1991935429        2.8862076183       -2.3885939844
 C          0.3933875605        4.1713744592       -1.8983790926
 H          0.7438026373        4.8874592341       -2.6261551620
 H         -0.0363949872        4.6116638292       -1.0115618864
 H         -0.2388230247        2.6972605969       -3.4506582871
 H         -1.0292690614        2.4503250372       -1.8528534230
 H          1.9943549309        2.7313143966       -2.4036917853
 O          3.0501370587        1.4250617298        1.7005186464
