  62
        -98.93716993
 C         -2.4370941787       -0.9730390982       -0.1504322526
 C         -3.5908952698       -0.8694792452        0.6581036123
 C         -4.6630698343        0.0256878163        0.1813971686
 C         -4.4855388713        0.6847058971       -0.9790923752
 C         -5.4106648583        1.6721349089       -1.6394312402
 C         -5.3884681650        3.0511088569       -0.9602800534
 C         -5.4223234570        3.0173544927        0.5653782471
 H         -4.5731468350        2.4363013163        0.9297248524
 H         -5.2906537841        4.0419929812        0.9229922288
 C         -6.7110099149        2.4719559005        1.1761994477
 H         -6.6310353095        2.5895054293        2.2599903166
 H         -7.5530982864        3.0800614765        0.8382229888
 C         -7.0228837560        1.0033799758        0.8805919976
 H         -7.4205858876        0.8806284912       -0.1232384054
 H         -7.8160640107        0.6946633399        1.5679178493
 C         -5.8566363662        0.0461915358        1.1060099831
 H         -6.2439915097       -0.9800026891        1.1078184919
 H         -5.4547577848        0.2020269739        2.1137670027
 H         -6.2334128998        3.6325788139       -1.3329173355
 H         -4.4693366723        3.5599365199       -1.2607195437
 H         -5.0631818412        1.7863079354       -2.6685841924
 H         -6.4198927312        1.2727556269       -1.6734591671
 O         -3.3505381311        0.5559691421       -1.7246879679
 C         -2.3051816294       -0.2637123236       -1.3431748615
 O         -1.3429190128       -0.2769461338       -2.1341020975
 O         -3.7251482105       -1.4947956482        1.7453295649
 C         -1.3065031481       -1.8831772846        0.2939519310
 C         -0.0482493276       -1.0736914971        0.4858479832
 C         -0.0697006000       -0.0149438016        1.3910043387
 C          1.0531811342        0.7614371437        1.5986067332
 C          2.2245443745        0.5027329167        0.9071532550
 C          2.2607311191       -0.5546338113        0.0100692905
 C          1.1305860300       -1.3393047940       -0.1908211352
 H          1.1762781937       -2.1551683732       -0.8951360826
 N          3.4389900442       -0.8167353382       -0.7049550903
 S          4.9097346693       -0.8225751289        0.0960440815
 O          5.7758429936       -1.6499427762       -0.7152346616
 O          4.7594301011       -1.2146191475        1.4781358859
 C          5.4635774962        0.8667604131       -0.0038485702
 C          5.8446860310        1.5352036188        1.1429732961
 C          6.2861509646        2.8452407648        1.0401375930
 C          6.3395831116        3.4598037084       -0.2014073018
 C          5.9554579774        2.7738547481       -1.3441271806
 C          5.5141242193        1.4638827497       -1.2481707728
 H          5.2086152445        0.8975550149       -2.1121547204
 H          5.9977312762        3.2552679839       -2.3079300584
 H          6.6825423841        4.4794645689       -0.2793461876
 H          6.5854029176        3.3802174263        1.9271454620
 H          5.7812492115        1.0191638146        2.0878793219
 H          3.3666004097       -1.5832539857       -1.3573336441
 H          3.1033555637        1.1073490136        1.0605955175
 H          1.0183265365        1.5792304886        2.3024827438
 H         -0.9855397368        0.1901636515        1.9286910396
 H         -1.6137216591       -2.2714533250        1.2761470577
 C         -1.1557039291       -3.0469380764       -0.6622497883
 C         -0.5260854887       -4.3247830480       -0.1960160591
 C         -2.0003739224       -4.2673225721       -0.4584960963
 H         -2.3904392589       -4.7751406100       -1.3278066331
 H         -2.6726931729       -4.2702756582        0.3869036726
 H          0.0955226082       -4.8772117710       -0.8848002177
 H         -0.1940346015       -4.3720727828        0.8302419876
 H         -0.9781132988       -2.7297145432       -1.6839220392
