  62
        -98.93748194
 C         -2.2781964715       -0.5353766396       -0.2581576573
 C         -3.5378823477       -0.9893549311       -0.7273083801
 C         -4.7014391475       -0.6262249750        0.0884693637
 C         -4.5224711714        0.0438556110        1.2407561657
 C         -5.6056530605        0.4756482207        2.1915827816
 C         -6.2779642262        1.8009026065        1.8070672058
 C         -7.2096376148        1.7313900631        0.5963025934
 H         -7.9252640099        0.9206461888        0.7359908821
 H         -7.7749990904        2.6651126102        0.5738004570
 C         -6.4900903719        1.5589481962       -0.7488306112
 H         -6.9093725505        2.2553346468       -1.4785722554
 H         -5.4344715014        1.8165822094       -0.6329472527
 C         -6.5952097612        0.1565848393       -1.3487878712
 H         -7.6373284736       -0.0600055818       -1.5935186717
 H         -6.0203357627        0.1373809856       -2.2784586519
 C         -6.0637784633       -0.9596644215       -0.4400114883
 H         -6.7574058254       -1.1394957032        0.3808622307
 H         -5.9758208764       -1.8731525774       -1.0331159935
 H         -6.8618999313        2.1318030081        2.6689936258
 H         -5.5006123106        2.5470820834        1.6264559540
 H         -6.3599043855       -0.3078570653        2.2687412575
 H         -5.1309241832        0.6002998577        3.1671147798
 O         -3.2915874020        0.3968649426        1.6950467787
 C         -2.1414012252        0.1385176855        0.9564682861
 O         -1.0987664105        0.5473267770        1.4996746270
 O         -3.6816933570       -1.6705134796       -1.7772629233
 C         -1.0619634452       -0.8510352391       -1.1089877821
 C          0.0657040178       -1.3793362807       -0.2603585452
 C         -0.0957498794       -2.6047536701        0.3818266450
 C          0.9120151530       -3.1290760475        1.1670791641
 C          2.1100246998       -2.4520669078        1.3141489536
 C          2.2776217994       -1.2248051425        0.6847279599
 C          1.2586983262       -0.6955888565       -0.0950122055
 H          1.4091212429        0.2675357323       -0.5533342389
 N          3.4691588954       -0.4988669442        0.8368383587
 S          4.0263871700        0.4217237376       -0.4608955541
 O          3.3943223139        1.7165333117       -0.4352060748
 O          3.8951951861       -0.3271839357       -1.6913070445
 C          5.7473333620        0.5865849231       -0.0209643096
 C          6.1109145182        1.5679230509        0.8819846753
 C          7.4423396767        1.6795204087        1.2498555593
 C          8.3827230051        0.8127451738        0.7127894068
 C          8.0032092476       -0.1661622418       -0.1932233596
 C          6.6730166283       -0.2840888848       -0.5645401996
 H          6.3330609852       -1.0234764101       -1.2717402986
 H          8.7369884420       -0.8363029530       -0.6112209378
 H          9.4183789362        0.9029840840        1.0000660236
 H          7.7412443732        2.4411581657        1.9518633668
 H          5.3462927899        2.2233940074        1.2655753957
 H          4.2091565941       -1.0338590393        1.2695704636
 H          2.9015488169       -2.8632436590        1.9222344519
 H          0.7696866860       -4.0783893005        1.6614759724
 H         -1.0296344196       -3.1372555668        0.2604504878
 H         -1.3963268530       -1.6685005013       -1.7708335505
 C         -0.6313296316        0.2906341934       -2.0179380264
 C         -1.6340813145        1.2457433784       -2.5905135034
 C         -0.6428932420        1.7209382443       -1.5729245200
 H          0.1673109216        2.3604653663       -1.8933854517
 H         -0.9868591633        1.9311150844       -0.5720043689
 H         -1.5149273059        1.5631349180       -3.6154557438
 H         -2.6637177558        1.1309392705       -2.2839840990
 H          0.1842737140       -0.0025023369       -2.6738685302
