  62
        -98.94367358
 C          1.7843347110        0.3826308968       -0.3063916833
 C          2.9643681687        0.7479816700       -0.9961599592
 C          4.2123435761        0.6555194872       -0.2269832683
 C          4.1636269461        0.2636427521        1.0596314953
 C          5.3620368832        0.0803653883        1.9443755573
 C          5.8899100785       -1.3594539461        1.8747026048
 C          6.0757549974       -1.8806716553        0.4497273895
 H          6.4794881403       -2.8927620196        0.5234995249
 H          5.0982731825       -1.9587564385       -0.0315113375
 C          7.0022664930       -1.0234589248       -0.4238560830
 H          7.6120046724       -0.3755109202        0.2068779995
 H          7.6838112150       -1.6835285980       -0.9646072858
 C          6.2794962638       -0.1750104418       -1.4717673769
 H          5.5965135878       -0.8056982718       -2.0464741828
 H          7.0269005006        0.2158455800       -2.1674680128
 C          5.4887244269        1.0227516065       -0.9304226857
 H          6.1290839069        1.6229931689       -0.2807175349
 H          5.1928797839        1.6386631830       -1.7849158501
 H          6.8415067295       -1.4041302048        2.4075401112
 H          5.1812208429       -2.0129098366        2.3884799868
 H          6.1403296604        0.7785912594        1.6425248112
 H          5.0673961753        0.3006376992        2.9717677817
 O          3.0078582406       -0.0578330527        1.6945872723
 C          1.7903381550       -0.0153091363        1.0306777359
 O          0.8127521490       -0.3455525801        1.7268278005
 H         -2.1886029599        0.0825602545       -0.3470292199
 C         -1.8033879245        1.0447616172       -0.0559327178
 C         -0.4889733166        1.3827569424       -0.3343275978
 C         -0.0308169047        2.6430752836        0.0427451932
 C         -0.8620954851        3.5299736303        0.6973108985
 C         -2.1727165722        3.1855786268        0.9794135055
 C         -2.6441718085        1.9362085613        0.5977851842
 N         -3.9582258296        1.5486591606        0.8905913588
 S         -4.8254681347        0.5862809129       -0.1624886018
 O         -4.5338676232        0.9030982504       -1.5412342724
 O         -6.2041786635        0.7576065249        0.2447346428
 C         -4.3184177680       -1.0805894341        0.2046028997
 C         -4.0366629107       -1.4316698677        1.5096899144
 C         -3.6732630003       -2.7399533833        1.7861351009
 C         -3.6058778314       -3.6717892352        0.7616230299
 C         -3.8996785071       -3.3053878275       -0.5425838164
 C         -4.2601946975       -1.9975158668       -0.8264143769
 H         -4.4858917787       -1.6657732974       -1.8276474901
 H         -3.8465506707       -4.0317903891       -1.3381275255
 H         -3.3206203040       -4.6887517503        0.9805659492
 H         -3.4394429207       -3.0270767667        2.7987366351
 H         -4.0906232844       -0.6830454079        2.2822474003
 H         -4.5325707199        2.2544471259        1.3268289940
 H         -2.8229508036        3.8766291322        1.4939270238
 H         -0.4898042425        4.5008650221        0.9882967354
 H          0.9921154117        2.9151376261       -0.1799006576
 C          0.4564333937        0.4416136353       -1.0384795584
 H          0.6852123792        0.8670794354       -2.0274432000
 C         -0.1016024411       -0.9535722138       -1.2266546671
 C         -0.9941259101       -1.2616757991       -2.3903148964
 C          0.4078142943       -1.7896203289       -2.3608802288
 H          0.5578380166       -2.8459406829       -2.1965206439
 H          1.1390300701       -1.3410128316       -3.0175461600
 H         -1.2248375754       -0.4562478097       -3.0714076161
 H         -1.8065073815       -1.9568433448       -2.2426671176
 H         -0.2988781244       -1.4532180019       -0.2844082664
 O          2.9723469464        1.1389621386       -2.1950845787
