  62
        -98.94758931
 C         -1.7385382007       -1.3711063099       -0.1999124116
 C         -2.8222107085       -0.7387534094        0.4506297750
 C         -3.3113077219        0.4992244355       -0.1681908234
 C         -2.7138502670        0.9582480753       -1.2833322332
 C         -3.0986476112        2.2163786355       -2.0061678326
 C         -2.2784663622        3.4175367688       -1.5179411730
 C         -2.2426453295        3.5654241229        0.0030406796
 H         -1.6703807521        2.7334826888        0.4215508191
 H         -1.6761842195        4.4729859168        0.2262601356
 C         -3.6222219860        3.6449793289        0.6716566300
 H         -3.5990979137        4.4406260556        1.4195320362
 H         -4.3761492792        3.9170244929       -0.0682420311
 C         -4.0583415431        2.3690867650        1.3945697122
 H         -3.2532945003        2.0335551926        2.0541998931
 H         -4.9183989148        2.6123814337        2.0245738819
 C         -4.4663073788        1.1954130498        0.4949730481
 H         -4.9472936683        0.4429221000        1.1270889653
 H         -5.1916482248        1.5355465782       -0.2469233684
 H         -1.2485163172        3.2994365597       -1.8629991773
 H         -2.6908874215        4.3236225235       -1.9668151457
 H         -2.9100505691        2.0697399116       -3.0712985689
 H         -4.1605352968        2.4037964136       -1.8571474567
 O         -1.6648848450        0.3328557133       -1.8714531737
 C         -1.1220956518       -0.8160576321       -1.3221158912
 O         -0.1228630043       -1.2520718079       -1.9254136809
 O         -3.3549973696       -1.1895333969        1.5032651517
 C         -1.1488716742       -2.6378288556        0.3995417313
 C          0.2954038575       -2.3718486477        0.7408619762
 C          1.3541093336       -3.1816528471        0.3519646814
 C          2.6615795885       -2.8005564371        0.6044736323
 C          2.9406703678       -1.5956199313        1.2239533148
 C          1.8863356932       -0.7953620236        1.6414227592
 C          0.5813654912       -1.1996118111        1.4304116214
 H         -0.2324986195       -0.5587734583        1.7477008556
 N          2.1700573044        0.4970808297        2.1787243399
 S          1.9529359311        1.6588019100        0.9653336541
 O          2.2733872372        2.9311679102        1.5787323384
 O          0.6329756877        1.5733398765        0.3787528733
 C          3.2089260674        1.1994798164       -0.2023848733
 C          2.8951286643        0.3491649150       -1.2440647987
 C          3.9082151988       -0.0461199505       -2.1046827103
 C          5.2029111880        0.4093636941       -1.9093971879
 C          5.4988953982        1.2640054705       -0.8576076857
 C          4.4938003276        1.6615579493        0.0085593493
 H          4.6710047780        2.3239348848        0.8398844894
 H          6.5067035146        1.6167915580       -0.7089630272
 H          5.9854603714        0.0951400082       -2.5819665757
 H          3.6730730574       -0.7134850476       -2.9181951576
 H          1.8793624041        0.0046063333       -1.3711871284
 H          1.5595320299        0.7394377864        2.9490178649
 H          3.9536877522       -1.2635291980        1.3822830302
 H          3.4731848414       -3.4363148642        0.2865197379
 H          1.1553565064       -4.1028153843       -0.1710102751
 H         -1.7085176350       -2.8130206664        1.3303344267
 C         -1.3501920023       -3.8174512940       -0.5268544435
 C         -1.4278911977       -5.2077577817        0.0280395335
 C         -2.6609602879       -4.5428805638       -0.5034151713
 H         -3.0745904621       -4.8892737900       -1.4384813553
 H         -3.4045769659       -4.1993892144        0.2009342441
 H         -0.9971401096       -6.0157914387       -0.5434469053
 H         -1.3373915129       -5.3248439050        1.0972771963
 H         -0.8755561470       -3.6734931979       -1.4909028948
