  62
        -98.93887596
 C          1.9137881402        1.3140618987        0.3499294766
 C          2.6416609946        0.7966913646       -0.7463844782
 C          3.8589655525        0.0281716740       -0.4230356376
 C          4.1930179784       -0.1747545512        0.8649805841
 C          5.3855026684       -0.8681885984        1.4906738392
 C          6.3006367128       -1.7572504175        0.6530618859
 C          5.6543542390       -3.0494986300        0.1541456010
 H          6.3569527541       -3.5464077392       -0.5182930050
 H          5.4912193413       -3.7090077697        1.0103908116
 C          4.3150949135       -2.8848595673       -0.5602744530
 H          3.9632872116       -3.8801373101       -0.8456708312
 H          3.5776203471       -2.4718453218        0.1314023959
 C          4.3473611272       -2.0250929858       -1.8222043351
 H          3.3712559373       -2.1161212169       -2.3068624883
 H          5.1002658904       -2.4125518137       -2.5113458041
 C          4.6133607635       -0.5270306443       -1.5965836483
 H          4.2516719242        0.0139128615       -2.4759444741
 H          5.6773873627       -0.3240294004       -1.5023512528
 H          7.1384783614       -2.0360737770        1.2978718764
 H          6.7169438507       -1.1933598937       -0.1764019095
 H          5.9910055532       -0.0703707552        1.9350385430
 H          4.9866468555       -1.4520587882        2.3264726697
 O          3.4328787471        0.3125699938        1.8905187732
 C          2.2857506756        1.0518162522        1.6663206142
 O          1.6892073729        1.4044921704        2.7050723799
 O          2.3045615786        0.9735941434       -1.9452554210
 C          0.6599313691        2.1393979251        0.1184192210
 C         -0.3841385635        1.2916441596       -0.5676064604
 C         -1.0153484388        1.6483658892       -1.7508645039
 C         -1.9552331405        0.8078375725       -2.3241889900
 C         -2.2955738968       -0.3909484830       -1.7266136692
 C         -1.6858081645       -0.7464068613       -0.5290789554
 C         -0.7419826672        0.0934713237        0.0402239098
 H         -0.2630538258       -0.1854787592        0.9712436560
 N         -2.0483812032       -1.9484902746        0.1021378601
 S         -3.6806956988       -2.3063703092        0.2069124109
 O         -3.8171692192       -3.1137880913        1.3990698306
 O         -4.1206971133       -2.9218549460       -1.0204733781
 C         -4.4971824937       -0.7332487253        0.4167144940
 C         -5.4268989916       -0.3109080361       -0.5114764430
 C         -6.0266916798        0.9270556089       -0.3442873388
 C         -5.6846277616        1.7189358751        0.7405605241
 C         -4.7516301272        1.2787381406        1.6671663863
 C         -4.1508781097        0.0408987068        1.5065188340
 H         -3.4245118256       -0.3296613125        2.2124892172
 H         -4.4861157097        1.8951439953        2.5111526695
 H         -6.1471694288        2.6849651249        0.8671715137
 H         -6.7542601195        1.2707948132       -1.0616116572
 H         -5.6598707814       -0.9568771463       -1.3422077382
 H         -1.5788330681       -2.1094659851        0.9807490253
 H         -3.0140630892       -1.0620240422       -2.1686521835
 H         -2.4277874146        1.0903361102       -3.2523049653
 H         -0.7635680312        2.5781076080       -2.2327860479
 H          0.2807485538        2.3947574207        1.1186165783
 C          0.9932316863        3.4196639548       -0.6168483881
 C          0.1155519695        4.6236502212       -0.4591492312
 C          1.4753437712        4.5998416760        0.1700064158
 H          2.2529513493        5.2182292395       -0.2526293670
 H          1.5437985324        4.4876634512        1.2425964056
 H         -0.0405646396        5.2641234680       -1.3138266571
 H         -0.7431657100        4.5341447305        0.1886330734
 H          1.4543431188        3.2412721771       -1.5809192925
