  62
        -98.93760754
 C         -1.7078894199       -1.3593565790        0.9018214973
 C         -2.7816662450       -0.8514336471        0.1348580037
 C         -3.1665900722        0.5526868290        0.4014731547
 C         -2.4863767843        1.2688656763        1.3108211894
 C         -2.6640900193        2.7188043698        1.6682663573
 C         -1.7247352013        3.5981881721        0.8241925699
 C         -2.3145900628        4.0704269484       -0.5027837707
 H         -3.1172739736        4.7868498834       -0.3117572133
 H         -1.5210760882        4.5940024658       -1.0413593587
 C         -2.8484637977        2.9476526732       -1.3953144408
 H         -2.1433513433        2.1137123492       -1.3754504031
 H         -2.8765178167        3.3179819244       -2.4225222195
 C         -4.2544911776        2.4752859236       -0.9962984936
 H         -4.6841209391        3.1919462816       -0.2961001370
 H         -4.8991507254        2.4799290009       -1.8780617027
 C         -4.3328143689        1.0619427242       -0.4021958182
 H         -5.2363251695        0.9854450156        0.2130554173
 H         -4.4462020105        0.3354048308       -1.2132453746
 H         -0.8147772612        3.0262705378        0.6221349466
 H         -1.4431759885        4.4779554811        1.4071123206
 H         -3.7001025774        3.0235317127        1.5517266870
 H         -2.3840751334        2.8163052565        2.7194174557
 O         -1.4566686482        0.7424708000        2.0276592665
 C         -1.0323763165       -0.5513399784        1.8209592420
 O         -0.0525076961       -0.8873208325        2.5192787523
 H         -0.2768702913       -0.9873739743       -1.1415846891
 C          0.5373798338       -1.6023440543       -0.7881274227
 C          0.3046480003       -2.5751682881        0.1726207970
 C          1.3749657114       -3.3464197043        0.6094401045
 C          2.6456505475       -3.1407903322        0.1007921471
 C          2.8813408038       -2.1332559209       -0.8177955367
 C          1.8184548856       -1.3509604486       -1.2520197997
 N          2.0035415447       -0.2542190228       -2.1226653902
 S          1.7275165483        1.2452609762       -1.4135078349
 O          0.3878318296        1.3041766850       -0.8949780471
 O          2.0701062693        2.2162398224       -2.4301976688
 C          2.9278371368        1.3164987280       -0.0958190329
 C          4.1478231167        1.9144829466       -0.3499149492
 C          5.1195388594        1.9059256864        0.6369627094
 C          4.8601316640        1.2906971238        1.8528571275
 C          3.6327237892        0.6921542718        2.0903652183
 C          2.6527415098        0.7011772366        1.1089499379
 H          1.6897238763        0.2444436723        1.2789207605
 H          3.4205502604        0.2116699763        3.0320680306
 H          5.6170232578        1.2782569030        2.6211336995
 H          6.0735126592        2.3740898929        0.4551934207
 H          4.3011835872        2.3826968615       -1.3090069060
 H          2.9100648439       -0.2407010689       -2.5712682695
 H          3.8785800779       -1.9428949528       -1.1852549847
 H          3.4668644394       -3.7497203011        0.4461847822
 H          1.2117426362       -4.0946226207        1.3710463749
 C         -1.0838379618       -2.7412996793        0.7416618140
 H         -0.9667212846       -3.1469699447        1.7614563495
 C         -1.9201468891       -3.7354646178       -0.0459609609
 C         -1.6901127680       -4.0096375492       -1.4985385832
 C         -1.3388101516       -5.0489300457       -0.4787249343
 H         -1.9588253668       -5.9294875201       -0.4062215947
 H         -0.2913030367       -5.2267469256       -0.2902085621
 H         -0.8853841124       -3.4840828465       -1.9905472530
 H         -2.5572057936       -4.1562557117       -2.1238635627
 H         -2.9518393214       -3.7481089210        0.2852168904
 O         -3.4110394363       -1.5061347017       -0.7367014162
