  62
        -98.94047370
 C         -1.0084488014       -1.4186007705       -0.7881758949
 C         -2.2988730919       -1.5143829864       -0.2113744049
 C         -3.2050396960       -0.3666453845       -0.3826995550
 C         -2.7672393371        0.7205857928       -1.0438417771
 C         -3.4514314198        2.0280474618       -1.3868918813
 C         -4.7888751415        2.3973481890       -0.7521078986
 C         -4.7172027881        2.7101490737        0.7425940206
 H         -5.7353912813        2.8417948950        1.1154398304
 H         -4.1893341252        3.6584390184        0.8729620296
 C         -4.0040505293        1.6702984497        1.6039480444
 H         -4.0034025415        2.0350873386        2.6352099589
 H         -2.9576743162        1.5885806933        1.2987900775
 C         -4.6354241707        0.2795502168        1.6050995248
 H         -5.6848404567        0.3531007093        1.8982082985
 H         -4.1161502027       -0.3153874753        2.3616394301
 C         -4.5497948280       -0.4867302258        0.2750239732
 H         -5.3410207068       -0.1837299856       -0.4065611092
 H         -4.6900862358       -1.5501979866        0.4903980573
 H         -5.5243070500        1.6225300798       -0.9473477994
 H         -5.1374809851        3.3006151664       -1.2602550598
 H         -3.5727821007        2.0225344935       -2.4758089848
 H         -2.7215054588        2.8125757709       -1.1611770902
 O         -1.5203437006        0.7669527400       -1.5916149262
 C         -0.6082620473       -0.2695278793       -1.4683191220
 O          0.4848655094       -0.0286888000       -2.0168360378
 O         -2.6886938686       -2.5353927032        0.4190189380
 C         -0.0688515336       -2.5877270488       -0.5433399765
 C          0.7374813010       -2.3265559531        0.7073638548
 C          0.7644185564       -3.2366778708        1.7570472109
 C          1.4617110284       -2.9491776980        2.9175296091
 C          2.1157831845       -1.7391663023        3.0648885893
 C          2.0950928100       -0.8240404868        2.0184277976
 C          1.4400100769       -1.1375727692        0.8383476572
 H          1.4408829176       -0.4249571400        0.0299579770
 N          2.7269407751        0.4235282022        2.1236271187
 S          2.0066839656        1.7606492047        1.4106639955
 O          2.5400821927        2.8873262832        2.1531274258
 O          0.5651509311        1.6536161057        1.4004411760
 C          2.6704104410        1.8246228726       -0.2378064326
 C          1.9288862577        2.4408196167       -1.2241496042
 C          2.4654228311        2.5504638620       -2.4966675468
 C          3.7277190099        2.0436314410       -2.7583088442
 C          4.4608482409        1.4281629030       -1.7554028179
 C          3.9319467652        1.3191807880       -0.4798423448
 H          4.4709874304        0.8411001878        0.3212280133
 H          5.4407910467        1.0296361189       -1.9643576300
 H          4.1395735969        2.1244733100       -3.7521225621
 H          1.8895401709        3.0193298666       -3.2783356576
 H          0.9416358922        2.8041431889       -0.9853740346
 H          3.1066941704        0.6408376433        3.0336259657
 H          2.6302827319       -1.4985464057        3.9827756044
 H          1.4757315087       -3.6639931550        3.7262628554
 H          0.2159710402       -4.1628072161        1.6692924747
 H         -0.7193586272       -3.4513443536       -0.3476232137
 C          0.8383336085       -2.9213855638       -1.7099799076
 C          1.3961699787       -4.3074764419       -1.8231751786
 C          0.3447629999       -3.8415379154       -2.7842055377
 H          0.6278401137       -3.6364188965       -3.8054284699
 H         -0.6542796514       -4.2395506562       -2.6804301395
 H          2.4059525318       -4.4263325701       -2.1840793661
 H          1.1100451467       -5.0265543684       -1.0707357400
 H          1.4686289030       -2.0957344916       -2.0126363818
