  62
        -98.94495730
 C         -1.8422357007       -1.2571754026       -0.0344548787
 C         -3.0744517492       -0.9423241521        0.5868061786
 C         -3.8716701387        0.1058306965       -0.0605695588
 C         -3.4145744221        0.6971286658       -1.1794580359
 C         -4.1234277417        1.7637014994       -1.9698035852
 C         -3.9241413314        3.1856539194       -1.4271688410
 C         -4.6684837915        3.4980232238       -0.1282439527
 H         -4.6181921830        4.5788645951        0.0180136821
 H         -5.7203699833        3.2336799190       -0.2406923407
 C         -4.0920972421        2.8054000519        1.1146798389
 H         -3.0793624129        2.4555305873        0.8994142018
 H         -4.0122297739        3.5274788781        1.9305782218
 C         -4.9237446743        1.6299966567        1.6285285184
 H         -5.8947276968        1.9922807895        1.9731841080
 H         -4.4053093758        1.1913899193        2.4851926439
 C         -5.1545969563        0.5204122828        0.5943991121
 H         -5.5594025252       -0.3519242498        1.1134634192
 H         -5.8760311983        0.8480255030       -0.1538931889
 H         -4.2736173140        3.8791148009       -2.1955226828
 H         -2.8548684764        3.3611058687       -1.2853171525
 H         -5.1891822999        1.5376275046       -2.0150994122
 H         -3.7160624749        1.7223611335       -2.9822861730
 O         -2.2251642404        0.3657591599       -1.7482467250
 C         -1.4066978257       -0.6123015764       -1.1929030182
 O         -0.3435958452       -0.7970014162       -1.8115006455
 O         -3.4894271373       -1.5120169988        1.6323302977
 C         -0.9803092207       -2.3462102490        0.5717759454
 C          0.4090257203       -1.8675411993        0.9197157407
 C          1.4839913710       -2.7469817944        1.0003692475
 C          2.7468090117       -2.2916147886        1.3358974559
 C          2.9753848611       -0.9488320391        1.5746357428
 C          1.9126210592       -0.0600305466        1.4807748448
 C          0.6402977220       -0.5251559407        1.1824218584
 H         -0.1818467762        0.1778043210        1.1291771147
 N          2.1427316531        1.3142312991        1.6604931306
 S          3.4925806059        1.9711893252        0.9139315693
 O          4.6247043086        1.8612901938        1.8017708327
 O          3.1088326618        3.3214623671        0.5614578462
 C          3.7972337640        0.9968777975       -0.5515097922
 C          5.0731156086        0.5232150575       -0.7853156851
 C          5.3086581638       -0.2420547625       -1.9158040097
 C          4.2666242007       -0.5299880708       -2.7840216930
 C          2.9915969341       -0.0458447166       -2.5366369436
 C          2.7538447521        0.7315139167       -1.4151041450
 H          1.7622640004        1.1030740926       -1.2111599758
 H          2.1658322855       -0.2803422147       -3.1890600599
 H          4.4459564935       -1.1375399570       -3.6570073092
 H          6.2998963685       -0.6184411415       -2.1109783572
 H          5.8488915383        0.7557497907       -0.0738175388
 H          1.3292478819        1.8882933160        1.4944624335
 H          3.9539027296       -0.5735613579        1.8278864073
 H          3.5670589726       -2.9893290376        1.4026267533
 H          1.3291495571       -3.7941408722        0.7986768239
 H         -1.4870289682       -2.6302188799        1.5071753917
 C         -0.9552151046       -3.5527932677       -0.3492675976
 C         -0.9789097421       -4.9449038867        0.2054650620
 C         -2.1921925893       -4.3894174531       -0.4754516587
 H         -2.4627306954       -4.7692113625       -1.4492083440
 H         -3.0395627229       -4.1122170179        0.1348867171
 H         -0.4143403695       -5.7117429536       -0.3033460499
 H         -1.0143413929       -5.0584144931        1.2786061853
 H         -0.3816167478       -3.3704805209       -1.2511272368
