  62
        -98.93865186
 C          1.8564403240        0.9864185490        0.3909648902
 C          2.1686585568       -0.1625158673       -0.3717301661
 C          3.4832099181       -0.7851911414       -0.1219419749
 C          4.3051195566       -0.2647604702        0.8073484156
 C          5.6646817754       -0.7114994292        1.3027902485
 C          6.4947029668       -1.7199270954        0.5123666200
 C          6.9924739904       -1.2182946694       -0.8426737677
 H          7.7403575698       -0.4398047414       -0.6719474127
 H          7.4872819903       -2.0481172073       -1.3521895269
 C          5.9234263724       -0.6360736807       -1.7639884084
 H          6.4142198433       -0.3255210418       -2.6903961946
 H          5.4973241083        0.2610936774       -1.3103505076
 C          4.7903745179       -1.5904413763       -2.1361061242
 H          4.1978947289       -1.1074448542       -2.9177489258
 H          5.2060092487       -2.5101407210       -2.5524561733
 C          3.8311033116       -1.9596899888       -0.9909919389
 H          2.8928683091       -2.3043004384       -1.4353138028
 H          4.2252570852       -2.7762780757       -0.3908185708
 H          7.3730691651       -1.9451999421        1.1234576522
 H          5.9474685591       -2.6508050876        0.3956179430
 H          5.4966740219       -1.1147651452        2.3077367279
 H          6.2475142855        0.2058236661        1.4336914621
 O          3.9514586300        0.8319011989        1.5384340996
 C          2.7485804053        1.4819601782        1.3467950091
 O          2.5891783646        2.4816825459        2.0748916466
 O          1.4008155505       -0.6775314034       -1.2295977132
 C          0.5620610497        1.7724460707        0.2458128048
 C         -0.5819538566        1.1018005655        0.9675943744
 C         -1.2328281043        1.7344402252        2.0197921373
 C         -2.3033050611        1.1281366001        2.6548084321
 C         -2.7465493224       -0.1188912990        2.2525482463
 C         -2.0968699363       -0.7609135567        1.2064707011
 C         -1.0287496697       -0.1497130828        0.5679229704
 H         -0.5252536393       -0.6560230587       -0.2422218055
 N         -2.5543295907       -2.0247535136        0.7751160520
 S         -4.1434186538       -2.0491044816        0.2385131719
 O         -5.0273281829       -2.0704218336        1.3769776060
 O         -4.2388122427       -3.1777268919       -0.6597942925
 C         -4.3275250130       -0.5123646145       -0.6481330870
 C         -5.0208328723        0.5333544880       -0.0739130141
 C         -5.0785767573        1.7451231525       -0.7433537716
 C         -4.4413014428        1.8902325176       -1.9655051488
 C         -3.7499396727        0.8291724915       -2.5298745380
 C         -3.6869528837       -0.3838366053       -1.8644829551
 H         -3.1598283138       -1.2306361979       -2.2747184954
 H         -3.2549505945        0.9427583847       -3.4812313628
 H         -4.4837728503        2.8360382466       -2.4824541905
 H         -5.6149639240        2.5725777554       -0.3078198789
 H         -5.5013952498        0.3773192957        0.8778015685
 H         -1.9501985476       -2.4366432287        0.0773669174
 H         -3.5837100538       -0.6046229773        2.7275736057
 H         -2.7983178229        1.6320983147        3.4707864734
 H         -0.8868279120        2.7043888228        2.3461555755
 H          0.7489784461        2.7353887207        0.7390931475
 C          0.1871079761        2.0391363954       -1.2003553052
 C         -0.7541191307        3.1623268227       -1.5093729740
 C          0.6950632556        3.2760354168       -1.8747791870
 H          0.9741948427        3.2170309876       -2.9161190070
 H          1.3181917259        3.9416460464       -1.2948320851
 H         -1.4750493410        3.0243934203       -2.2997060058
 H         -1.1157769399        3.7530495522       -0.6817072764
 H          0.1149865628        1.1408234936       -1.7984397482
