  62
        -98.93827097
 C         -0.9428756466       -1.7292791293        0.1591833824
 C         -1.5318813165       -0.7940401044        1.0450591927
 C         -2.5016767988        0.1591840279        0.4783822866
 C         -2.7675616063        0.1142132244       -0.8402939328
 C         -3.6267667122        1.0022548564       -1.7161064523
 C         -4.6144153492        1.9875959555       -1.0973339569
 C         -5.8048792603        1.3360781677       -0.3939744490
 H         -6.3813702335        2.1202812040        0.1012490248
 H         -6.4464044859        0.8789314066       -1.1515204772
 C         -5.4530113661        0.2558491668        0.6254041094
 H         -6.3884368415       -0.1364313016        1.0334487098
 H         -4.9493018166       -0.5719834369        0.1219996529
 C         -4.5934447740        0.7215434429        1.7984233173
 H         -4.5522018601       -0.0983971110        2.5203002668
 H         -5.0705105303        1.5733110028        2.2867931888
 C         -3.1445017069        1.1054949935        1.4516929621
 H         -2.5550903974        1.0419174972        2.3708330043
 H         -3.0798718208        2.1299046522        1.0915066785
 H         -5.0059173258        2.5932652506       -1.9192011706
 H         -4.0958716463        2.6662900501       -0.4265664015
 H         -2.9192288255        1.5602288853       -2.3409774688
 H         -4.1651616439        0.3287905569       -2.3910526786
 O         -2.1902722016       -0.8142835414       -1.6545048024
 C         -1.2630539645       -1.7436287398       -1.1987843849
 O         -0.8437955027       -2.5025139773       -2.0906519558
 O         -1.2446993560       -0.7465937248        2.2719058605
 C          0.1126566484       -2.6430493669        0.7560911519
 C          1.4420361632       -1.9290109835        0.7966382289
 C          2.2786262285       -2.0271996568        1.9025882585
 C          3.4873717821       -1.3545522819        1.9332004092
 C          3.8686711586       -0.5453530739        0.8778776924
 C          3.0337973540       -0.4304177239       -0.2271345795
 C          1.8421154242       -1.1383146957       -0.2712910844
 H          1.2129650361       -1.0475701839       -1.1440101476
 N          3.3574962093        0.4207852410       -1.3039090521
 S          2.2443637902        1.6256538202       -1.6577932997
 O          1.0549594031        1.0600569711       -2.2390881059
 O          2.9736440557        2.5687284095       -2.4781715156
 C          1.8844497197        2.3456839455       -0.0674113216
 C          0.8452337084        1.8304559617        0.6796593494
 C          0.6379866313        2.3103682213        1.9628204528
 C          1.4652070609        3.2998324452        2.4708523931
 C          2.4978006952        3.8178809588        1.7028873581
 C          2.7184123807        3.3312162549        0.4247300209
 H          3.5092324216        3.7039312534       -0.2061177362
 H          3.1349601951        4.5917072780        2.0996732622
 H          1.3014047917        3.6683134229        3.4711212934
 H         -0.1593307777        1.8881482905        2.5538408997
 H          0.2143996289        1.0639903815        0.2565596298
 H          4.2807175909        0.8274451945       -1.2353545076
 H          4.8001355390       -0.0009778149        0.9088596646
 H          4.1299502589       -1.4440312224        2.7953712052
 H          1.9681391425       -2.6224684890        2.7483265797
 H         -0.2003761786       -2.8053825002        1.8003671010
 C          0.2011898593       -4.0068562542        0.0894198905
 C          1.2978434462       -4.3815329875       -0.8569309927
 C          1.2514530076       -4.9922778871        0.5097011351
 H          0.9733792770       -6.0311654575        0.6015233310
 H          1.9895654552       -4.6650464864        1.2256352436
 H          1.0356450374       -4.9837586693       -1.7131346527
 H          2.0588217369       -3.6454695182       -1.0667380777
 H         -0.7812275000       -4.4087859874       -0.1357495967
