  62
        -98.94055613
 C         -2.5696696327       -0.3030075420       -0.4576352177
 C         -2.1661439957       -0.9172821767        0.7522436187
 C         -1.4645697428       -2.2016900062        0.6215058523
 C         -1.2260814200       -2.6969529398       -0.6060709898
 C         -0.3862464347       -3.9055118076       -0.9073028179
 C          1.1058453540       -3.5268993785       -0.8003631354
 C          1.8569713199       -4.2381883972        0.3254609515
 H          2.0458649660       -5.2725220599        0.0288528496
 H          2.8229487985       -3.7404222309        0.4325524068
 C          1.1526639600       -4.2588850625        1.6855627538
 H          0.3953079609       -5.0446836866        1.6935799291
 H          1.9025365243       -4.5407670278        2.4278289259
 C          0.4976738044       -2.9422362424        2.1231428654
 H          0.9623735055       -2.0891549617        1.6278749856
 H          0.6616914743       -2.8197216470        3.1960546723
 C         -1.0238737979       -2.8776722143        1.8897568111
 H         -1.4493431520       -3.8843295066        1.9367431307
 H         -1.4744716815       -2.2869331041        2.6927168993
 H          1.6069250362       -3.7499649167       -1.7443127660
 H          1.1764015451       -2.4451842099       -0.6582658820
 H         -0.6303350130       -4.7089767940       -0.2157833493
 H         -0.6260554369       -4.2281755541       -1.9208696507
 O         -1.6551073681       -2.0922502028       -1.7458606936
 C         -2.3117192681       -0.8738902972       -1.7015923638
 O         -2.6182293769       -0.4113909522       -2.8216778272
 H         -0.5835679461        1.1977425379       -0.9863127534
 C         -0.8399384777        1.9039371681       -0.2085066108
 C         -2.1622581625        2.0213616611        0.2017441788
 C         -2.4714316939        2.9563403133        1.1801420200
 C         -1.4693449804        3.7180278116        1.7579824439
 C         -0.1467675375        3.5508458303        1.3917807980
 C          0.1691624917        2.6329985283        0.3954249134
 N          1.4977599868        2.4327582648       -0.0202647718
 S          1.9326182770        0.8757047015       -0.5152835661
 O          1.6174701910        0.7323239788       -1.9157654121
 O          1.3765521886       -0.1151310917        0.3758697981
 C          3.7023289846        0.9523070140       -0.3095096924
 C          4.4589171209        1.5850549419       -1.2778852229
 C          5.8316508210        1.6678630566       -1.1066065918
 C          6.4215963332        1.1198293177        0.0230228518
 C          5.6496744518        0.4861813681        0.9851331988
 C          4.2758544003        0.4014974720        0.8208125007
 H          3.6354364221       -0.0874129838        1.5376522306
 H          6.1105276727        0.0576348590        1.8604718701
 H          7.4902982837        1.1843942069        0.1528043662
 H          6.4352931476        2.1572755422       -1.8537725702
 H          3.9564970480        1.9852857154       -2.1431228641
 H          2.1739533362        2.8223884085        0.6225411152
 H          0.6350017639        4.1211562931        1.8698715808
 H         -1.7208896654        4.4362032594        2.5236837176
 H         -3.4926709291        3.0761232259        1.5029397200
 C         -3.1721196940        1.0916122329       -0.4300954611
 H         -3.3061345751        1.3873044897       -1.4815298385
 C         -4.5198809163        1.0953160027        0.2582766270
 C         -5.5571679880        2.1077980528       -0.1218186195
 C         -5.7286326858        0.6735140421       -0.5198627400
 H         -6.4825411930        0.0836304846       -0.0207951541
 H         -5.5798416297        0.4056963003       -1.5561158948
 H         -6.1996272003        2.5028808085        0.6504735971
 H         -5.3021477617        2.8189152192       -0.8930367542
 H         -4.4570397687        0.7843915734        1.2944677259
 O         -2.3774022353       -0.4140143759        1.8875730406
