  62
        -98.94488052
 C         -2.2062925574        0.9867938250       -0.5066902867
 C         -2.3107080545        0.1215019411        0.6093619952
 C         -3.1111301052       -1.0944889647        0.4021469383
 C         -3.6506683727       -1.3323022520       -0.8073578957
 C         -4.5351888273       -2.4985453866       -1.1384863075
 C         -6.0141753597       -2.1557876255       -0.9096793227
 C         -6.2979918333       -1.5182141135        0.4503628023
 H         -5.8148877154       -0.5394543256        0.4931286492
 H         -7.3750385298       -1.3483995329        0.5109638905
 C         -5.8445386438       -2.3585534402        1.6522904721
 H         -6.6411120803       -2.3604552933        2.3991746329
 H         -5.6874787651       -3.3927002525        1.3436642407
 C         -4.5838311929       -1.8415778513        2.3479121123
 H         -4.4761806166       -2.3728905811        3.2972681325
 H         -4.7012494033       -0.7798264859        2.5785372506
 C         -3.2725588902       -2.0228380576        1.5726833182
 H         -3.1718405381       -3.0633949291        1.2563539675
 H         -2.4467926111       -1.7916425323        2.2525972979
 H         -6.5996445395       -3.0709686426       -1.0141683022
 H         -6.3315913932       -1.4579694073       -1.6879028624
 H         -4.3886639674       -2.7544265837       -2.1893064490
 H         -4.2487594802       -3.3504153261       -0.5246219713
 O         -3.4856207820       -0.5015176772       -1.8688631396
 C         -2.7664468802        0.6770028865       -1.7449692879
 O         -2.6895345252        1.3460417514       -2.7960576169
 O         -1.7676407142        0.3522722084        1.7207994296
 C         -1.4242700476        2.2827428595       -0.3863426029
 C          0.0041025880        1.9880039964        0.0044923004
 C          0.6746606355        2.6535503956        1.0216701535
 C          1.9820353552        2.3210217912        1.3326449364
 C          2.6500314586        1.3315033032        0.6356410805
 C          1.9906806423        0.6631685533       -0.3879474243
 C          0.6821344198        0.9988574394       -0.6975906550
 H          0.1675153403        0.4738252235       -1.4942154351
 N          2.6651870488       -0.3329185385       -1.1170589261
 S          3.4442468145       -1.5516379641       -0.2618134410
 O          3.4957871929       -2.6742911319       -1.1737306630
 O          2.8196804069       -1.7909598676        1.0184293177
 C          5.0920549889       -0.9164833558       -0.0330783253
 C          5.6203201236       -0.8110094976        1.2385795478
 C          6.9067779041       -0.3171482370        1.3906772725
 C          7.6381314219        0.0590733731        0.2745194402
 C          7.0941109562       -0.0563864265       -0.9961415046
 C          5.8091617680       -0.5499388796       -1.1552084537
 H          5.3505903927       -0.6592844611       -2.1237547923
 H          7.6659867012        0.2367668280       -1.8617533739
 H          8.6382239082        0.4442313400        0.3957064957
 H          7.3314735999       -0.2275871460        2.3775620438
 H          5.0116960526       -1.1108333167        2.0769482039
 H          2.1108425560       -0.7292611895       -1.8624659738
 H          3.6656766817        1.0663570882        0.8793483181
 H          2.4883354329        2.8409152850        2.1315108886
 H          0.1707680100        3.4253468190        1.5795632712
 H         -1.4160089172        2.7274792334       -1.3924295974
 C         -2.1308440860        3.2305999835        0.5602125649
 C         -1.9951987960        4.7126103313        0.3865288364
 C         -3.2868337436        4.0334112546        0.0465896149
 H         -4.1379708482        4.1847645339        0.6934433666
 H         -3.5471151928        3.9154377578       -0.9955375671
 H         -1.9625846378        5.3344809863        1.2683107476
 H         -1.3803931278        5.0661868867       -0.4271862239
 H         -2.2046398418        2.8343978770        1.5665003716
