  62
        -98.92831972
 C          2.4294435452        0.0331186144       -0.5311134488
 C          3.4254394606       -0.8006609614        0.0305685433
 C          4.6240742741       -0.1175963210        0.5604870602
 C          4.6924180324        1.2232858281        0.5223345463
 C          5.8331978858        2.0973056339        0.9648126711
 C          6.7633101936        2.4159167794       -0.2180448808
 C          7.8638847971        1.3853534859       -0.4674480896
 H          8.3594115060        1.6587711539       -1.4018839750
 H          8.6072342001        1.4546331477        0.3295314252
 C          7.3904949448       -0.0670637395       -0.5687525644
 H          6.4800095714       -0.1166539513       -1.1687215127
 H          8.1583701088       -0.6329222063       -1.0999671254
 C          7.1505122529       -0.7206448399        0.8003385211
 H          7.5840010736       -0.0899157853        1.5763107944
 H          7.6824015765       -1.6733790292        0.8435736932
 C          5.6817646428       -1.0187321842        1.1378640011
 H          5.4208308138       -2.0181873376        0.7755689585
 H          5.5633758049       -1.0423063284        2.2263816661
 H          6.1436182778        2.5175209794       -1.1127329955
 H          7.2392680121        3.3822388412       -0.0394317059
 H          5.3903100612        3.0300066550        1.3203055923
 H          6.3793030499        1.6349892190        1.7816448921
 O          3.6968493575        1.9909272101       -0.0015612390
 C          2.5594921251        1.4243553342       -0.5404205822
 O          1.7431497362        2.2491938521       -0.9994354680
 O          3.3453405521       -2.0541578213        0.0930044797
 C          1.1435424316       -0.4972987221       -1.1437697028
 C          0.0728835752       -0.6425276639       -0.0924436477
 C          0.3026475283       -1.3584060418        1.0781978046
 C         -0.6940346705       -1.4833631728        2.0288871913
 C         -1.9323577793       -0.8958560006        1.8379462128
 C         -2.1712108838       -0.1761179493        0.6750354806
 C         -1.1710943734       -0.0595783072       -0.2830597534
 H         -1.3559348483        0.5115059181       -1.1831740817
 N         -3.4189613230        0.4450864698        0.4830980313
 S         -4.7965257558       -0.4699945530        0.8350175602
 O         -5.0147028726       -0.4388507820        2.2591462637
 O         -4.6801113694       -1.7837328785        0.2423177167
 C         -6.0551993522        0.4811445922        0.0080669927
 C         -6.4892078235        0.0890124552       -1.2439232224
 C         -7.4518713497        0.8504698941       -1.8878767260
 C         -7.9582917824        1.9858810946       -1.2735180548
 C         -7.5119832470        2.3667574645       -0.0165610932
 C         -6.5506205269        1.6095914601        0.6335058861
 H         -6.1804767534        1.8619299041        1.6134098337
 H         -7.9100977621        3.2489905387        0.4581535674
 H         -8.7077104160        2.5762964854       -1.7765741461
 H         -7.8027260128        0.5557279347       -2.8637813691
 H         -6.0739023853       -0.8056691611       -1.6795865439
 H         -3.4939347571        0.8706594971       -0.4310904334
 H         -2.7169187406       -0.9902467158        2.5712780044
 H         -0.5051869903       -2.0451470109        2.9316920244
 H          1.2662448372       -1.8204659857        1.2304238775
 H          0.8151444758        0.2914430463       -1.8393154163
 C          1.3479956961       -1.7620342177       -1.9671561484
 C          0.8301717778       -3.1091254716       -1.5733265686
 C          0.1897789686       -2.3667397460       -2.7049269076
 H          0.3431092829       -2.7193051107       -3.7135919974
 H         -0.7876291278       -1.9426132268       -2.5275960524
 H          1.4499607470       -3.9647804516       -1.7934051762
 H          0.2811969038       -3.1988934207       -0.6492425132
 H          2.3000836227       -1.7519883250       -2.4878420742
