  62
        -98.93622167
 C         -1.2961795298       -1.8204605633       -0.5230855789
 C         -1.4252482266       -0.4579026986       -0.8818296251
 C         -2.7190303751        0.1857340706       -0.5694655729
 C         -3.7012282152       -0.5338361610        0.0023949165
 C         -5.1250276871       -0.1720343008        0.3728595116
 C         -5.5842053308        1.2832577861        0.3782517539
 C         -4.9667863861        2.1386763405        1.4845222288
 H         -5.2590709547        3.1777883194        1.3194083210
 H         -5.3892614135        1.8227939595        2.4417986037
 C         -3.4468830231        2.0600529033        1.6043846098
 H         -3.1455591205        2.6856513418        2.4488573895
 H         -3.1503905049        1.0364591077        1.8425526974
 C         -2.6683427480        2.5311763036        0.3782111523
 H         -2.9695705806        3.5486956100        0.1230503449
 H         -1.6093997097        2.5505920020        0.6484932636
 C         -2.8050073825        1.6534175910       -0.8763701210
 H         -3.7167049951        1.8815690739       -1.4229606301
 H         -1.9597108708        1.8764450702       -1.5339397637
 H         -6.6660119846        1.2685018065        0.5365058881
 H         -5.4156589576        1.7332946338       -0.5955043333
 H         -5.7601815481       -0.7337113970       -0.3212143639
 H         -5.2965084713       -0.6061721583        1.3631186508
 O         -3.5348100486       -1.8545129830        0.3124362712
 C         -2.3448905613       -2.5160758399        0.0813776027
 O         -2.3475842663       -3.7109632358        0.4416045611
 H          1.1612008478       -0.2815134596       -0.0589875637
 C          1.4719390140       -1.1006558291        0.5701885317
 C          0.9636885953       -2.3732775975        0.3427715583
 C          1.3543900245       -3.4096356587        1.1835836889
 C          2.2332841831       -3.1786452548        2.2264934000
 C          2.7578421812       -1.9157380903        2.4331419244
 C          2.3755066440       -0.8729462042        1.5973331075
 N          2.8924158897        0.4221407965        1.7704448451
 S          3.5266188475        1.1920043164        0.4160573183
 O          3.9753989331        0.2271024614       -0.5603472630
 O          4.5477007314        2.0717420161        0.9506753008
 C          2.2137379032        2.1984671708       -0.2314581893
 C          1.6257137159        3.1171531519        0.6157952588
 C          0.6472951240        3.9574794479        0.1124100496
 C          0.2802067589        3.8679667662       -1.2226860795
 C          0.8817169587        2.9414201689       -2.0579001273
 C          1.8602597111        2.0961142499       -1.5601340521
 H          2.3430878938        1.3533912910       -2.1741954119
 H          0.5885461252        2.8638246740       -3.0923890220
 H         -0.4849698386        4.5214968029       -1.6116303623
 H          0.1731493209        4.6788822021        0.7588855741
 H          1.9439384910        3.1590703121        1.6445254667
 H          3.5230756404        0.5143208718        2.5545067852
 H          3.4563824762       -1.7348468356        3.2366255447
 H          2.5218619621       -3.9908302052        2.8765955182
 H          0.9488472105       -4.3983928094        1.0240420239
 C         -0.0273259837       -2.6238392681       -0.7639062281
 H         -0.3446745821       -3.6760084568       -0.6890398516
 C          0.5361402066       -2.4290610824       -2.1657489318
 C          1.8685718439       -1.8236472258       -2.4797514087
 C          1.6641701316       -3.2985991296       -2.6387235245
 H          1.6203048513       -3.7170643523       -3.6330703017
 H          2.1269949107       -3.9456417335       -1.9081314705
 H          1.9336661051       -1.2179368319       -3.3719598152
 H          2.5010663691       -1.4728404725       -1.6789356880
 H         -0.2512221764       -2.2318243839       -2.8868752309
 O         -0.5240278380        0.2085173156       -1.4495937078
