  62
        -98.94483281
 C          1.9284228431        0.4276565655       -0.0214931499
 C          2.9653693976        0.5608369376        0.9409213188
 C          4.1237442875       -0.3267843162        0.7864294092
 C          4.1368493565       -1.2161039389       -0.2226818104
 C          5.2723906058       -2.1462542952       -0.5340316446
 C          6.2567193147       -1.5094947618       -1.5252745345
 C          6.6883968715       -0.0933593635       -1.1441678160
 H          7.4040344444        0.2419709158       -1.8979594507
 H          5.8234962249        0.5711839406       -1.2042155262
 C          7.3211214068        0.0243825690        0.2494954161
 H          7.6402270308       -0.9592914776        0.5959485231
 H          8.2148808636        0.6476286740        0.1765825566
 C          6.4170717904        0.6643015231        1.3047852836
 H          6.0205044364        1.6085854039        0.9234413543
 H          7.0287281744        0.8964235264        2.1806655126
 C          5.2397091958       -0.1942060712        1.7840469402
 H          5.6018636892       -1.1781111803        2.0893142553
 H          4.8034479783        0.2976069238        2.6583448674
 H          5.7811629325       -1.4696044300       -2.5080355434
 H          7.1356794889       -2.1524254078       -1.5994756159
 H          4.8615313934       -3.0554478856       -0.9764056042
 H          5.7865529757       -2.4044831752        0.3898120892
 O          3.1199248706       -1.3332916725       -1.1107985837
 C          1.9976243968       -0.5197466974       -1.0426932091
 O          1.1656111805       -0.7562721273       -1.9427955854
 O          2.9233884529        1.3942406664        1.8845446656
 C          0.7420821524        1.3658317646        0.1296733305
 C         -0.4299377987        0.6765100818        0.7866521070
 C         -0.8892618436        1.0845932342        2.0332581843
 C         -1.9767444146        0.4636782492        2.6234812453
 C         -2.6286696571       -0.5734986899        1.9817852190
 C         -2.1742043847       -0.9899787562        0.7367746739
 C         -1.0885919367       -0.3624930902        0.1441291771
 H         -0.7349574255       -0.6980910251       -0.8193161601
 N         -2.8394628206       -2.0368938512        0.0707843745
 S         -4.4984428296       -1.8690960516       -0.0944163966
 O         -5.1466520289       -2.2968965785        1.1206397135
 O         -4.8478342502       -2.6065648298       -1.2881327755
 C         -4.7539602829       -0.1192221373       -0.3316280537
 C         -5.4248224787        0.6171656331        0.6230568395
 C         -5.5580109605        1.9846430439        0.4424625364
 C         -5.0162438730        2.5888697722       -0.6810604857
 C         -4.3485369122        1.8340367974       -1.6333237901
 C         -4.2124243568        0.4669310338       -1.4585994632
 H         -3.7004158040       -0.1483572459       -2.1814115053
 H         -3.9297290091        2.3045240169       -2.5084317644
 H         -5.1143155371        3.6542371710       -0.8175026812
 H         -6.0786098111        2.5738966032        1.1799382492
 H         -5.8275918381        0.1072432388        1.4827958736
 H         -2.4121980757       -2.2799170678       -0.8114893747
 H         -3.4758817545       -1.0720699974        2.4244361312
 H         -2.3204372665        0.7904104018        3.5928758045
 H         -0.3783790329        1.8864409024        2.5457883900
 H          1.0891374817        2.1524461700        0.8127593214
 C          0.3173891677        2.0153926039       -1.1737506778
 C         -0.5025727612        3.2682593601       -1.1250119365
 C          0.9261057878        3.3241443758       -1.5744174355
 H          1.1352670626        3.4954930206       -2.6197888779
 H          1.6549771150        3.7618063428       -0.9078103772
 H         -1.2785738278        3.4038343506       -1.8619279716
 H         -0.7443016051        3.6689419700       -0.1525691851
 H          0.1076589408        1.3043264138       -1.9618229404
