  62
        -98.93520386
 C          2.5961814449        0.1407387643       -0.1903683161
 C          2.3747734182        1.3072732670       -0.9642224085
 C          1.7216330522        2.4302802126       -0.2828582261
 C          1.3918442866        2.3153587198        1.0153818950
 C          0.6995699846        3.3532399084        1.8563696354
 C         -0.7637038856        3.6326838974        1.4583774947
 C         -0.9402016422        4.8445225564        0.5342495877
 H         -1.8301177665        5.3953388886        0.8455839129
 H         -0.0913004425        5.5157793593        0.6718997802
 C         -1.1062836847        4.5311670392       -0.9559512055
 H         -0.9560118968        5.4600518273       -1.5111934829
 H         -2.1307218486        4.1981295562       -1.1366229072
 C         -0.1771652102        3.4575049355       -1.5238112080
 H         -0.5225992709        2.4695077542       -1.2074441269
 H         -0.2592861506        3.4775370274       -2.6128395628
 C          1.3042492522        3.6035733888       -1.1206904358
 H          1.9346323336        3.5942308626       -2.0122896426
 H          1.4705057316        4.5384215056       -0.5875288220
 H         -1.3169293659        3.8192766213        2.3805497242
 H         -1.1866144248        2.7344193206        1.0049978085
 H          0.7267747984        2.9705621330        2.8786298500
 H          1.2740456431        4.2817681120        1.8266655687
 O          1.6761242524        1.2023199600        1.7428761863
 C          2.2062919923        0.0669571992        1.1485831679
 O          2.2929094679       -0.9080193175        1.9203411421
 H          0.4310196689       -0.8538354042       -1.1173603455
 C          0.6866477321       -1.8447935484       -0.7725765458
 C          2.0252126096       -2.1940024378       -0.6342604174
 C          2.3341861484       -3.4764948575       -0.2054770272
 C          1.3210317973       -4.3669893898        0.1103224351
 C         -0.0070101551       -3.9902395405        0.0367985991
 C         -0.3260944032       -2.7098995404       -0.4024492816
 N         -1.6664508186       -2.2694916598       -0.4861672302
 S         -2.0351157131       -0.8080376156        0.2891202204
 O         -1.4043994939        0.2872872911       -0.4012036953
 O         -1.7678204846       -0.9187403586        1.7070799727
 C         -3.7943180499       -0.7560481941        0.0021873387
 C         -4.2422419603       -0.3663446490       -1.2454870254
 C         -5.6050790292       -0.3600583290       -1.4961966692
 C         -6.4921966250       -0.7425333337       -0.5007492717
 C         -6.0278696332       -1.1282834189        0.7475738639
 C         -4.6655212370       -1.1380415186        1.0040851610
 H         -4.2581077556       -1.4226602904        1.9610001673
 H         -6.7196818077       -1.4215352590        1.5206406476
 H         -7.5523606659       -0.7372498800       -0.6987092569
 H         -5.9693102131       -0.0581155362       -2.4648722415
 H         -3.5150993231       -0.0710716970       -1.9840569910
 H         -2.3061234243       -2.9749289026       -0.1402793614
 H         -0.7909483007       -4.6748481311        0.3250183028
 H          1.5721841860       -5.3609400824        0.4488990996
 H          3.3641459993       -3.7715883331       -0.0885001209
 C          3.0396831473       -1.1145296114       -0.9255835682
 H          2.9503144420       -0.8434175316       -1.9917972365
 C          4.4827735465       -1.5393405087       -0.7121851615
 C          5.5147227236       -0.5556676874       -0.2496450968
 C          5.0925812504       -1.6767438457        0.6494324708
 H          5.7887196055       -2.4858096033        0.8169085354
 H          4.4679736565       -1.4501889636        1.4985531887
 H          5.1772684316        0.4425689584       -0.0100602856
 H          6.4966525784       -0.5916112787       -0.6971944936
 H          4.8081486024       -2.2540775635       -1.4621834848
 O          2.6888368853        1.3942057063       -2.1826392625
