  62
        -98.93763761
 C          1.9751067510        1.3161909986        0.0622735561
 C          2.3477037053        0.3114855489       -0.8615236280
 C          3.7703364913       -0.0753727042       -0.8645170699
 C          4.6249622439        0.5277010269       -0.0212554474
 C          6.1127693246        0.3218933285        0.1146569286
 C          6.6332168338       -1.1221562289        0.0926650633
 C          5.6818278090       -2.1658359111        0.6959744198
 H          6.2315672245       -2.7695750274        1.4205326746
 H          4.8720227347       -1.6698581720        1.2340260686
 C          5.0924329834       -3.1135851814       -0.3516104612
 H          5.8855746841       -3.4081000778       -1.0424585715
 H          4.7441971595       -4.0192888733        0.1508956032
 C          3.9135555978       -2.5594010111       -1.1508832025
 H          3.0339003689       -2.4774337705       -0.5059613727
 H          3.6689153059       -3.2823610509       -1.9329903434
 C          4.1437031932       -1.1862881486       -1.8032128943
 H          5.1655301309       -1.0860392485       -2.1608988029
 H          3.4653864572       -1.1026397795       -2.6566456050
 H          6.8701047832       -1.4093043708       -0.9309108821
 H          7.5743812252       -1.1262075034        0.6450400375
 H          6.6086442440        0.8925385234       -0.6759101202
 H          6.3779974638        0.7916551170        1.0647997591
 O          4.2214420446        1.4923088603        0.8533146364
 C          2.9014712816        1.8950815511        0.9315596802
 O          2.6802981434        2.7651238262        1.7973468203
 H         -1.0428628757       -0.0520447042       -1.1155833853
 C         -1.0315741365       -0.1980755772       -0.0472586785
 C         -0.2843857209        0.6488490863        0.7564146828
 C         -0.2681802678        0.4210153873        2.1295120346
 C         -0.9826816137       -0.6256288724        2.6825806543
 C         -1.7231673857       -1.4732362763        1.8761685993
 C         -1.7364423972       -1.2589743177        0.5052431080
 N         -2.4989239926       -2.1163257585       -0.3202859701
 S         -4.1580952529       -2.0062382371       -0.1145858837
 O         -4.5059797656       -2.5390800991        1.1778464202
 O         -4.7440584911       -2.6651955193       -1.2595086530
 C         -4.4925164404       -0.2551932257       -0.1659047962
 C         -4.7169806073        0.3411682687       -1.3906573256
 C         -4.8961083326        1.7137595951       -1.4450850821
 C         -4.8340486959        2.4641695541       -0.2808814192
 C         -4.6038960238        1.8503799996        0.9405780351
 C         -4.4301572780        0.4771053277        1.0025969296
 H         -4.2538425879       -0.0369399500        1.9331075128
 H         -4.5554634485        2.4360054468        1.8446019066
 H         -4.9658919418        3.5337774561       -0.3263010948
 H         -5.0793866006        2.1941448854       -2.3929044101
 H         -4.7608976993       -0.2794681028       -2.2714206525
 H         -2.2730881082       -2.0135245229       -1.3000540146
 H         -2.2960136598       -2.2888675831        2.2871958212
 H         -0.9619961395       -0.7857955552        3.7500517270
 H          0.3210940906        1.0749479493        2.7577264841
 C          0.5331239722        1.7820730154        0.1873872821
 H          0.5455193890        2.5940072573        0.9263665537
 C         -0.0095582911        2.3199846830       -1.1205513780
 C         -1.3100594139        3.0646394325       -1.1166926227
 C         -0.0258346919        3.7988737395       -1.3560490507
 H          0.1838045263        4.1631773674       -2.3506033048
 H          0.3557948333        4.4344381177       -0.5703990273
 H         -1.8030169166        3.1962567485       -0.1654947215
 H         -1.9874788590        2.9256984468       -1.9450922910
 H          0.2111971407        1.6869302220       -1.9706802238
 O          1.5463298763       -0.2356397049       -1.6632680398
