  62
        -98.94173446
 C          2.2561522702        0.7476632126        0.0714306480
 C          3.4347663300        1.0559214240        0.8017677149
 C          4.3741952344       -0.0496067135        1.0270113924
 C          4.0518496644       -1.2812616055        0.5934650239
 C          4.9326685013       -2.4905016244        0.7112219994
 C          5.8263192835       -2.6496625841       -0.5269296997
 C          6.5631730948       -1.3710664048       -0.9262593148
 H          7.1841565440       -1.6112861870       -1.7919678326
 H          5.8332956976       -0.6263702926       -1.2522270777
 C          7.4399789692       -0.7705934366        0.1815699127
 H          7.6339169944       -1.5217925389        0.9479778839
 H          8.4036460707       -0.4898134082       -0.2485269809
 C          6.8621468390        0.4848414057        0.8376711240
 H          6.5809872284        1.2052340076        0.0652305517
 H          7.6482173991        0.9447150021        1.4423227020
 C          5.6521494698        0.2622073955        1.7537521719
 H          5.8808994919       -0.5185605190        2.4818993700
 H          5.4683675594        1.1946510120        2.2954097172
 H          6.5500884633       -3.4426641302       -0.3301679678
 H          5.2010654581       -2.9614175579       -1.3669879140
 H          5.5457696964       -2.4007630134        1.6059650486
 H          4.2954758763       -3.3716155494        0.8048333707
 O          2.8897368819       -1.5539022669       -0.0496224094
 C          1.9665701070       -0.5547481146       -0.3407929304
 O          0.9671962564       -0.9708163487       -0.9566878721
 H         -0.7980673118        0.9584711949       -1.6841686611
 C         -1.0470890371        1.0313087998       -0.6369767425
 C         -0.1003490181        1.4964928480        0.2609934337
 C         -0.4296312161        1.5472922934        1.6121347962
 C         -1.6788418245        1.1481823465        2.0485136447
 C         -2.6203284278        0.6782812102        1.1492894941
 C         -2.2926268971        0.6022158689       -0.1972872153
 N         -3.2335810702        0.1144844512       -1.1187798161
 S         -4.1401988903       -1.2398077579       -0.7207822303
 O         -3.4520581856       -2.1124452221        0.2015705096
 O         -4.5269768239       -1.8176680581       -1.9899213145
 C         -5.5887874941       -0.5512392518        0.0575788674
 C         -5.9906173789       -1.0120652704        1.2959215598
 C         -7.1270094602       -0.4711510484        1.8772666810
 C         -7.8393539331        0.5149951815        1.2125126037
 C         -7.4248076067        0.9650355261       -0.0321606509
 C         -6.2901529731        0.4278659610       -0.6186560053
 H         -5.9371987633        0.7473961683       -1.5847663640
 H         -7.9813046783        1.7319595140       -0.5463689326
 H         -8.7228137520        0.9347110417        1.6670832889
 H         -7.4506494480       -0.8208853615        2.8444622867
 H         -5.4029115008       -1.7775503064        1.7777148261
 H         -2.8682507596        0.0337279239       -2.0569187014
 H         -3.5904990227        0.3498338354        1.4843508076
 H         -1.9227808213        1.1980481593        3.0988840914
 H          0.3115842287        1.8951570250        2.3184542110
 C          1.2854382155        1.8898634512       -0.1793968650
 H          1.6389106100        2.6931289554        0.4870303119
 C          1.3195491730        2.4560911823       -1.5914625209
 C          2.6235437644        2.6136915483       -2.3132870705
 C          1.6084081314        1.6288065670       -2.8065559989
 H          1.0737158777        1.8590368409       -3.7169984697
 H          1.8002970060        0.5758599096       -2.6717120179
 H          3.5082018538        2.2313938547       -1.8249622425
 H          2.7936724564        3.5123900768       -2.8865143844
 H          0.5990004512        3.2590101523       -1.7155678418
 O          3.6890038178        2.2071003699        1.2453007609
