  62
        -98.94285301
 C         -2.6709221346       -1.1666389829        0.2649994549
 C         -2.7746027207       -0.3330787009       -0.8748724028
 C         -3.7179886040        0.7906389329       -0.7670543761
 C         -4.4274336645        0.9601394461        0.3626152380
 C         -5.3631198403        2.1024435651        0.6289123211
 C         -4.6316262632        3.2699577966        1.3066063355
 C         -3.3281736526        3.6693176088        0.6145821770
 H         -2.9177791698        4.5205687425        1.1619517112
 H         -2.6093941526        2.8516825253        0.7074468907
 C         -3.4834806477        4.0414960315       -0.8666406514
 H         -4.5286196187        4.2631176651       -1.0855902685
 H         -2.9116716451        4.9513068839       -1.0611013885
 C         -2.9762294231        2.9797320069       -1.8443064730
 H         -1.9587861279        2.6871711548       -1.5717831404
 H         -2.9317849811        3.4280327409       -2.8405882876
 C         -3.8305439025        1.7101012345       -1.9508882684
 H         -4.8725646685        1.9811384506       -2.1311618673
 H         -3.4708131829        1.1385375692       -2.8115217868
 H         -5.3061887383        4.1274408556        1.3386019602
 H         -4.3982887972        2.9820571120        2.3342474001
 H         -5.8044650159        2.4316699879       -0.3097053389
 H         -6.1569518014        1.7500781598        1.2895550454
 O         -4.3285550276        0.1218812783        1.4245367818
 C         -3.4490887275       -0.9449929325        1.4073102603
 O         -3.4537798237       -1.6241243863        2.4531677340
 H         -0.1027043686       -0.8207826697       -1.1837498022
 C          0.3800740180       -1.1141297791       -0.2633399159
 C         -0.3131810811       -1.9009471356        0.6451326381
 C          0.3199001138       -2.2635124626        1.8283296665
 C          1.6113486258       -1.8425516483        2.0928801430
 C          2.2939643990       -1.0464641522        1.1904141694
 C          1.6707018968       -0.6789726366        0.0049790012
 N          2.3321613471        0.1585603704       -0.9062189506
 S          3.9400578382       -0.1239659440       -1.2798108534
 O          4.1412082905        0.4892252494       -2.5742820288
 O          4.2740974833       -1.5254679389       -1.1745144752
 C          4.8303320143        0.8102011147       -0.0524020796
 C          5.8109992125        0.1986197690        0.7035798434
 C          6.4969841152        0.9493248801        1.6457987645
 C          6.1926373170        2.2914277850        1.8134058521
 C          5.2071005165        2.8916810269        1.0438268480
 C          4.5185742312        2.1470368847        0.0997012270
 H          3.7482116408        2.5764174311       -0.5190746659
 H          4.9729025041        3.9356692477        1.1768732793
 H          6.7264121425        2.8735128987        2.5479782676
 H          7.2640315937        0.4848975756        2.2444231699
 H          6.0101949213       -0.8489926004        0.5425731391
 H          1.7901489619        0.3678375183       -1.7318994876
 H          3.2983011637       -0.7128744307        1.3940172938
 H          2.0908430048       -2.1323676979        3.0154445520
 H         -0.2128822147       -2.8693514018        2.5469057259
 C         -1.7241346767       -2.3549476496        0.3518874135
 H         -2.0701843459       -2.9439434787        1.2116010769
 C         -1.7659289062       -3.2412228084       -0.8782567297
 C         -1.3180253969       -4.6656798642       -0.7615094361
 C         -2.7710960343       -4.3491957433       -0.9486362927
 H         -3.2309523757       -4.5676964880       -1.9007478088
 H         -3.4336415389       -4.4767288224       -0.1046833495
 H         -0.7753811718       -5.1038433713       -1.5852038092
 H         -0.9960532798       -5.0110564998        0.2093306362
 H         -1.5419642519       -2.7168216365       -1.7976839469
 O         -2.1208425163       -0.4905219281       -1.9421378578
