  62
        -98.94468436
 C          2.6235676218        1.2378395503        0.1323727823
 C          2.6521907849        0.2925790079       -0.9216498950
 C          3.4675873504       -0.9062581665       -0.6846705175
 C          4.1422180979       -1.0490547729        0.4696799932
 C          5.0236552628       -2.2080217567        0.8477932568
 C          4.2618086518       -3.4039287831        1.4352734401
 C          3.4398731132       -4.2100243280        0.4286773758
 H          4.0707131444       -4.4868005955       -0.4166193964
 H          3.1380213774       -5.1333284693        0.9268834495
 C          2.1812807709       -3.4931613692       -0.0806278456
 H          1.9316344759       -2.6657800774        0.5886412437
 H          1.3313396682       -4.1796000836       -0.0578036891
 C          2.2896500574       -2.9581041639       -1.5085649284
 H          1.3549025400       -2.4428966348       -1.7477472772
 H          2.3988874183       -3.7928182427       -2.2049091770
 C          3.4504788057       -1.9793850855       -1.7313962628
 H          4.3976699366       -2.5179199578       -1.7406835324
 H          3.3107266852       -1.4974940735       -2.7021328725
 H          3.6071933601       -3.0443592806        2.2325967598
 H          4.9999710569       -4.0713168879        1.8857448677
 H          5.7168336252       -1.8363063791        1.6053457597
 H          5.5975143560       -2.5316906096       -0.0208175943
 O          4.1092206338       -0.1090971166        1.4500722610
 C          3.3367043042        1.0310533143        1.3185122521
 O          3.3752966056        1.7872304226        2.3094864753
 O          2.0427465599        0.4174793914       -2.0184693549
 C          1.7945174846        2.5144777636        0.0875622246
 C          0.3499026394        2.1810202354        0.3752760659
 C         -0.2312412644        2.5261020750        1.5901196845
 C         -1.5367935624        2.1656243010        1.8745075724
 C         -2.2854704393        1.4475760140        0.9589783485
 C         -1.7095442815        1.0890207804       -0.2523844754
 C         -0.4081726375        1.4686495113       -0.5432699664
 H          0.0390362972        1.1675946540       -1.4788923773
 N         -2.4544593113        0.3316501436       -1.1792427293
 S         -3.0269511095       -1.1505046285       -0.6245469038
 O         -2.2027113094       -1.6708027999        0.4426060544
 O         -3.1582295529       -1.9801376439       -1.8026440366
 C         -4.6521141609       -0.7630731881       -0.0079403372
 C         -5.5596464331       -0.1945451789       -0.8803451906
 C         -6.8296768451        0.1118345440       -0.4186674501
 C         -7.1695305950       -0.1560399751        0.8992279357
 C         -6.2481052135       -0.7300717164        1.7616327071
 C         -4.9754642631       -1.0383197965        1.3061215730
 H         -4.2237666544       -1.4800995233        1.9408640089
 H         -6.5139116432       -0.9378837315        2.7856959854
 H         -8.1584833931        0.0838419000        1.2565702637
 H         -7.5491785567        0.5579240689       -1.0861788631
 H         -5.2554707063       -0.0070752002       -1.8965154236
 H         -1.9647256927        0.1997044572       -2.0538761145
 H         -3.2991198479        1.1536932638        1.1783976507
 H         -1.9742641123        2.4413688357        2.8219593948
 H          0.3577653061        3.0613888430        2.3209836960
 H          2.1655084097        3.1367642588        0.9125406067
 C          1.9572873726        3.2876598737       -1.2057893123
 C          1.5888829131        4.7394864514       -1.2323351517
 C          3.0286970795        4.3298469894       -1.3030437641
 H          3.5541166902        4.4414898173       -2.2395998637
 H          3.6492721633        4.4911784160       -0.4334148320
 H          1.1229515056        5.1360102523       -2.1212356882
 H          1.2330737794        5.1810496751       -0.3137883378
 H          1.7590318577        2.6997814789       -2.0918130044
