  62
        -98.94050381
 C         -0.2344770793       -1.8534045101       -0.4247247158
 C         -1.2749205466       -2.1357549660        0.4923716473
 C         -2.5631260465       -1.4472494887        0.2920840674
 C         -2.6835915569       -0.5982382154       -0.7444592368
 C         -3.8971432665        0.1982927149       -1.1440861372
 C         -4.1245569191        1.4458200467       -0.2684368490
 C         -3.7475259794        1.2837839354        1.2036356348
 H         -2.7245214493        0.9063275962        1.2829955440
 H         -3.7512539865        2.2762959267        1.6641048511
 C         -4.6886127429        0.3941667755        2.0136262820
 H         -4.2886437586        0.3295656293        3.0289451924
 H         -5.6673174864        0.8775662128        2.0714009891
 C         -4.8921447676       -1.0229464418        1.4800830448
 H         -5.4649982539       -1.0018481482        0.5570582784
 H         -5.4995105312       -1.5616494948        2.2137229735
 C         -3.6133770511       -1.8373845835        1.3025385152
 H         -3.0878714391       -1.8852992919        2.2632937501
 H         -3.8917543387       -2.8732658108        1.0708066056
 H         -3.5205725353        2.2603882262       -0.6739060190
 H         -5.1728994748        1.7394369239       -0.3428460515
 H         -3.7367562013        0.5187392310       -2.1754790740
 H         -4.7690463162       -0.4506252613       -1.1335571722
 O         -1.6502169322       -0.3319881376       -1.5883336152
 C         -0.4040657960       -0.9216660583       -1.4495742193
 O          0.4282842139       -0.5311370605       -2.2896820756
 H          1.2615796739        0.1507297294       -0.0055850982
 C          2.0070676314       -0.3535942106        0.5872886770
 C          2.0651601157       -1.7373539956        0.5943787391
 C          3.0502168396       -2.3558131149        1.3584987798
 C          3.9413072306       -1.6035714567        2.1011514565
 C          3.8551545348       -0.2223061971        2.1186549154
 C          2.8757057571        0.4045123718        1.3587019791
 N          2.7484982517        1.7999326817        1.3398858102
 S          1.2333040089        2.4933788668        1.1851176857
 O          1.4042763322        3.8350685856        1.7071148274
 O          0.2104060972        1.7003454196        1.8285116558
 C          0.9359723686        2.6033427913       -0.5641650888
 C          1.9914624845        2.7965266427       -1.4315254853
 C          1.7255464871        2.9225135297       -2.7850334151
 C          0.4192760176        2.8621123043       -3.2438468588
 C         -0.6292153119        2.6748312149       -2.3584258242
 C         -0.3699574392        2.5447472572       -1.0045863956
 H         -1.1514159600        2.3751908452       -0.2799609481
 H         -1.6442129871        2.6138066756       -2.7176409251
 H          0.2162689026        2.9511440143       -4.2994649498
 H          2.5387960390        3.0592682280       -3.4796898526
 H          2.9959282493        2.8285516976       -1.0429873726
 H          3.3345197036        2.3009179322        1.9914888537
 H          4.5339177078        0.3657385948        2.7171386766
 H          4.7004005129       -2.0964155916        2.6891628144
 H          3.1067839068       -3.4332562920        1.3780677487
 C          1.0855987649       -2.5656008368       -0.2072723513
 H          0.8409316915       -3.4529755044        0.3945143301
 C          1.7337662028       -3.0258292802       -1.5005571832
 C          2.5270619508       -4.2959461415       -1.5352816772
 C          1.1891553098       -4.2298410907       -2.2070276282
 H          1.1450504156       -4.2165542802       -3.2853349305
 H          0.3604191553       -4.7453578746       -1.7432628001
 H          2.6009167602       -4.8733218923       -0.6264860940
 H          3.4115671184       -4.3308717424       -2.1522752186
 H          2.0708042331       -2.2026123391       -2.1175212509
 O         -1.1385434234       -2.9513495874        1.4468240256
