  62
        -98.94340079
 C         -2.5022748827       -1.1373997376        0.0021587800
 C         -3.4539352303       -0.5920140914        0.9059149921
 C         -4.4058045002        0.3780452306        0.3524103975
 C         -4.3470604194        0.6776619401       -0.9575566175
 C         -5.2180284738        1.6850212766       -1.6491081434
 C         -4.5692207596        3.0763660544       -1.6439835921
 C         -4.0631444425        3.5171126563       -0.2703401100
 H         -3.2383413622        2.8672453189        0.0314433382
 H         -3.6540658294        4.5235331988       -0.3824477719
 C         -5.1338600131        3.5199974828        0.8297549012
 H         -5.0440384329        4.4451709735        1.4028167971
 H         -6.1273542993        3.5131501172        0.3799421469
 C         -5.0215596904        2.3657685391        1.8276124775
 H         -5.6775003953        2.5837655199        2.6745542027
 H         -3.9995200084        2.3107562671        2.2109189563
 C         -5.4103725315        0.9816335495        1.2929465229
 H         -5.4691168993        0.2998250413        2.1462857513
 H         -6.3952746803        1.0311903418        0.8242085224
 H         -5.2991674189        3.7985541017       -2.0141335905
 H         -3.7219412343        3.0656531283       -2.3336126669
 H         -6.1856399088        1.7217977298       -1.1524215367
 H         -5.3618043468        1.3642320161       -2.6822680714
 O         -3.4414120576        0.1203931118       -1.7981520956
 C         -2.4910182409       -0.7844642180       -1.3470984735
 O         -1.7237935898       -1.1788095855       -2.2499082500
 O         -3.5060915083       -0.9108224731        2.1234821925
 C         -1.5153053309       -2.1355482741        0.5844234105
 C         -0.1701390126       -1.5043168874        0.8570767566
 C          0.3402112321       -1.4472733758        2.1487334176
 C          1.5818316002       -0.8862502325        2.3914994995
 C          2.3358387216       -0.3658254594        1.3551098836
 C          1.8340175296       -0.4154569002        0.0609731457
 C          0.5931789585       -0.9881507508       -0.1804924449
 H          0.2068695518       -1.0222046502       -1.1886104080
 N          2.5758042744        0.1369408151       -0.9974470319
 S          4.1880915734       -0.2989567920       -1.1564975199
 O          4.5089181670       -0.0728496194       -2.5487913041
 O          4.4311557507       -1.6299913722       -0.6498221766
 C          5.0533912209        0.8984866619       -0.1619976543
 C          5.9516183419        0.4758712929        0.7983004941
 C          6.6241196728        1.4259874574        1.5512571166
 C          6.3884855559        2.7743161084        1.3308674127
 C          5.4846874456        3.1823238662        0.3609590885
 C          4.8101412950        2.2377932922       -0.3960202422
 H          4.1015931586        2.5128222769       -1.1596076682
 H          5.3033502951        4.2317486264        0.1928958895
 H          6.9118749186        3.5119951991        1.9184034223
 H          7.3269429385        1.1108753587        2.3056706776
 H          6.0972350952       -0.5832871795        0.9388647942
 H          2.1002517036        0.0861274338       -1.8871414072
 H          3.3022837669        0.0746273002        1.5383170413
 H          1.9658749183       -0.8500481808        3.3994813079
 H         -0.2484921259       -1.8381546634        2.9657795582
 H         -1.9466976373       -2.4279408433        1.5512926296
 C         -1.3541417770       -3.3840718143       -0.2615749130
 C         -0.8594929013       -4.6412303294        0.3857405109
 C         -2.2882375749       -4.5366414231       -0.0549280666
 H         -2.6076353034       -5.1011342696       -0.9180725685
 H         -3.0496406035       -4.4320848634        0.7042751905
 H         -0.1922873876       -5.2792666414       -0.1733277588
 H         -0.6524075838       -4.6102628070        1.4446828546
 H         -1.0341426329       -3.1806538381       -1.2754032167
