  62
        -98.93863285
 C         -2.8224747225       -0.0561889513       -0.1439813530
 C         -2.1485101012        0.7140451439       -1.1231643671
 C         -1.9476621487        2.1347296775       -0.7983810253
 C         -2.4075152028        2.6242835513        0.3656175775
 C         -2.2502374472        4.0439651365        0.8261321180
 C         -0.9908865913        4.2314265153        1.6823848651
 C          0.2827734309        3.6526105298        1.0651828300
 H          1.1088797784        3.9116393191        1.7321235680
 H          0.2227042355        2.5612086632        1.0538281642
 C          0.5964569017        4.1552179934       -0.3508488635
 H          1.6641219304        4.3778135214       -0.4088193730
 H          0.0595770790        5.0849428746       -0.5447410825
 C          0.2884589870        3.1447375484       -1.4579803812
 H          0.6921228082        2.1692686329       -1.1724147656
 H          0.7989919173        3.4670266197       -2.3697075123
 C         -1.1967748637        2.9659059461       -1.7998737664
 H         -1.6682352599        3.9423353000       -1.9284061606
 H         -1.2612606273        2.4242436264       -2.7481367039
 H         -0.8559522538        5.3005042634        1.8600095375
 H         -1.1512571922        3.7442697588        2.6471527903
 H         -2.2102158257        4.6971112655       -0.0436443284
 H         -3.1245210714        4.3057327304        1.4251963550
 O         -3.0638640292        1.8600363161        1.2764617601
 C         -3.2538421515        0.5072208034        1.0602938099
 O         -3.8326903452       -0.0828025337        1.9956237726
 H         -0.5203026890       -1.2386638771       -1.1063585195
 C         -0.5814141266       -1.9397780748       -0.2869433220
 C         -1.8250017652       -2.2639092695        0.2386475411
 C         -1.8815994868       -3.1686073833        1.2911482126
 C         -0.7211821451       -3.7150266999        1.8149306111
 C          0.5179885240       -3.3569857578        1.3131877795
 C          0.5794867393       -2.4637772573        0.2533979420
 N          1.8481356064       -2.0176312309       -0.2184303792
 S          2.3592658656       -0.7373460466        0.7755790953
 O          2.5947684169       -1.2764907808        2.0915256769
 O          1.4230854864        0.3626069915        0.6948036234
 C          3.9092782726       -0.2899842003        0.0174442203
 C          3.9982984573        0.8707293748       -0.7255900091
 C          5.2044785703        1.1869567325       -1.3315272372
 C          6.2920238619        0.3391556184       -1.1874616337
 C          6.1858744573       -0.8240045400       -0.4388884496
 C          4.9838114380       -1.1451999481        0.1705118957
 H          4.8551269706       -2.0329474849        0.7668373547
 H          7.0344751033       -1.4796290682       -0.3287841490
 H          7.2289688105        0.5878485502       -1.6603221425
 H          5.2890457175        2.0913742985       -1.9122565038
 H          3.1279381761        1.5027273639       -0.8067842473
 H          1.7523882252       -1.6359281284       -1.1533243734
 H          1.4308711014       -3.7354520056        1.7427332704
 H         -0.7822866600       -4.4101046528        2.6386438997
 H         -2.8409362646       -3.4189077523        1.7206537182
 C         -3.0525865975       -1.5563427942       -0.2753913594
 H         -3.8827919995       -1.7842589010        0.4110303606
 C         -3.4767901726       -1.9844070073       -1.6731977804
 C         -2.6650571999       -2.8965012027       -2.5394956422
 C         -3.9269399582       -3.3963663628       -1.9078795378
 H         -4.7903693766       -3.5682199458       -2.5322333202
 H         -3.8315905339       -4.0876205524       -1.0838307724
 H         -1.7259171060       -3.2651958815       -2.1575679273
 H         -2.6559172123       -2.6985004775       -3.6004603263
 H         -4.0319231391       -1.2063404802       -2.1859120242
 O         -1.7286969634        0.2608539159       -2.2208477678
