  62
        -98.94147824
 C         -1.9520645735       -1.0576486037       -0.1232631537
 C         -1.0920070651       -1.5776733483       -1.1231258840
 C         -0.1316598940       -2.6157512436       -0.7141783933
 C         -0.1262514406       -3.0167248544        0.5699092911
 C          0.8054913566       -4.0262881640        1.1800217013
 C          2.1872988144       -3.4247123789        1.5193158129
 C          2.6457753657       -2.2864330928        0.6060298989
 H          1.8539713310       -1.5364367201        0.5604186013
 H          3.4988917048       -1.7968035716        1.0854713891
 C          3.0740151160       -2.6958102821       -0.8044631953
 H          4.0567685513       -3.1701327335       -0.7415742877
 H          3.1802571448       -1.7846542406       -1.3986094672
 C          2.1471566801       -3.6645741469       -1.5352030640
 H          2.1113698451       -4.6076452211       -0.9955317246
 H          2.5991318136       -3.8767918687       -2.5086216850
 C          0.7355946538       -3.1529471077       -1.8241231356
 H          0.7935517602       -2.3420173719       -2.5567596533
 H          0.1740770659       -3.9603863328       -2.3105090081
 H          2.9320396046       -4.2221376511        1.5187071707
 H          2.1318935999       -3.0129842309        2.5295613236
 H          0.8962689139       -4.8754785126        0.5066882866
 H          0.3412529734       -4.3778375272        2.1035300260
 O         -0.9671910138       -2.4984634309        1.5017527569
 C         -1.8732047436       -1.4915574529        1.2014568119
 O         -2.5313977956       -1.1061768789        2.1872510056
 O         -1.1223158500       -1.1778423355       -2.3196969924
 C         -2.8811460334        0.0605197004       -0.5625560357
 C         -2.1806616086        1.3996259018       -0.4803608057
 C         -2.4247589223        2.3961413161       -1.4192268969
 C         -1.7459521651        3.5996847098       -1.3603902614
 C         -0.7800177718        3.8175644241       -0.3932044615
 C         -0.5267719235        2.8275083184        0.5478764629
 C         -1.2547974953        1.6464625078        0.5209992827
 H         -1.0611706645        0.8996893602        1.2752710865
 N          0.4805596556        2.9797296178        1.5201700630
 S          1.6481292102        1.7800121083        1.6270660846
 O          1.0631103048        0.5505780077        2.0927861563
 O          2.6824243202        2.3548517884        2.4600964899
 C          2.2592923058        1.5928737890       -0.0383002942
 C          1.5476049949        0.8232979568       -0.9360659722
 C          1.9924199115        0.7330077524       -2.2453111912
 C          3.1413037486        1.4047349464       -2.6328781564
 C          3.8498506181        2.1697220249       -1.7181534928
 C          3.4030416467        2.2724711041       -0.4107137207
 H          3.9224150163        2.8540709107        0.3336730464
 H          4.7452193422        2.6882531300       -2.0209649049
 H          3.4850821034        1.3285974557       -3.6523688243
 H          1.4236405807        0.1407799571       -2.9454249674
 H          0.6596571299        0.3028255864       -0.6139940304
 H          0.9259764488        3.8869514216        1.5111827717
 H         -0.2225948524        4.7414598030       -0.3682935557
 H         -1.9488026919        4.3666841656       -2.0917870889
 H         -3.1406662484        2.2172189181       -2.2067013707
 H         -3.0900016213       -0.1310917468       -1.6250975249
 C         -4.2008404618        0.1131994138        0.1800432702
 C         -5.4208558485        0.6379941658       -0.5137643632
 C         -5.3025239822       -0.8245360590       -0.2093172673
 H         -5.9145029021       -1.2478043630        0.5725328556
 H         -5.1128365289       -1.5026858066       -1.0286652916
 H         -6.1210101232        1.2272642937        0.0578890239
 H         -5.3247848820        0.9449356040       -1.5438391728
 H         -4.0878874663        0.3309028975        1.2343338323
