  62
        -98.93438108
 C          2.1298996898        0.9670280109        0.6459563499
 C          3.1346803998        0.6792485410       -0.3054635302
 C          3.9439516402       -0.5377025187       -0.0775374100
 C          3.6580069905       -1.3229144686        0.9767860702
 C          4.3112433309       -2.6151764183        1.3933333804
 C          3.9112396111       -3.8039480286        0.5073101706
 C          3.9607880409       -3.5287862189       -0.9927124794
 H          3.5860245311       -4.4188854091       -1.5049239592
 H          3.2785066107       -2.7097640391       -1.2275768895
 C          5.3475285908       -3.2154835986       -1.5500257296
 H          6.0258840011       -4.0358228184       -1.3062158195
 H          5.2553515907       -3.1729990488       -2.6381396196
 C          5.9760104205       -1.9013244483       -1.0789937299
 H          6.4150137106       -2.0024760980       -0.0900290699
 H          6.7992663204       -1.6713616482       -1.7613402500
 C          5.0330815801       -0.7032686686       -1.1106850700
 H          5.6306938699        0.2138477116       -1.0484556703
 H          4.5392423201       -0.6568694089       -2.0878092000
 H          2.8866148912       -4.0869433488        0.7619815108
 H          4.5637266614       -4.6452409084        0.7479250207
 H          5.3907970808       -2.4985099880        1.4148067003
 H          3.9778611210       -2.8154886782        2.4141633704
 O          2.6464022505       -1.0276734087        1.8460990802
 C          1.8784864601        0.1106154811        1.7199137200
 O          1.0247217502        0.2570962610        2.6197043201
 H         -1.1873352002        1.1497386200        0.7914842301
 C         -0.9885518704        1.4470274599       -0.2283865100
 C          0.2356105894        2.0210439602       -0.5493785002
 C          0.4828713692        2.3790255600       -1.8694964903
 C         -0.4760266608        2.1579131095       -2.8419542502
 C         -1.6928447606        1.5852432093       -2.5202247100
 C         -1.9531757304        1.2299578295       -1.2005802899
 N         -3.2059857502        0.6992966092       -0.8463981597
 S         -3.3288149498       -0.3946898006        0.4313374905
 O         -3.2532142599        0.3296589096        1.6743925404
 O         -2.3929310395       -1.4831880204        0.2494442707
 C         -5.0017869797       -0.9599131611        0.1793251208
 C         -5.2344267294       -2.1709177313       -0.4439906490
 C         -6.5435393893       -2.5745551417       -0.6572867588
 C         -7.5915747495       -1.7634293619       -0.2492925689
 C         -7.3424719598       -0.5507609217        0.3764685309
 C         -6.0364610999       -0.1424430613        0.5943027007
 H         -5.7929274801        0.7856516188        1.0844497505
 H         -8.1594586399        0.0763238881        0.6949426708
 H         -8.6089482694       -2.0794455722       -0.4174461787
 H         -6.7401635691       -3.5183873219       -1.1397236686
 H         -4.3881608393       -2.7714432811       -0.7369855689
 H         -3.7341469502        0.3825628589       -1.6485350496
 H         -2.4395486506        1.4165613889       -3.2813183499
 H         -0.2709240209        2.4323968594       -3.8656610702
 H          1.4379229691        2.8012933502       -2.1344856904
 C          1.2540897495        2.2069205107        0.5500444497
 H          0.7053844395        2.2507422307        1.5013697697
 C          2.0645090691        3.4785905809        0.4014270794
 C          1.4005612188        4.7955558307        0.6634817592
 C          2.4196413990        4.2649306912        1.6255469492
 H          3.3876033889        4.7412967115        1.6684965890
 H          2.0761340292        3.8881922013        2.5784519093
 H          1.6667572885        5.6394749207        0.0460708490
 H          0.3634477688        4.7774939305        0.9637341393
 H          2.8046987591        3.4304325409       -0.3861018007
 O          3.3786855095        1.3994638109       -1.3088845103
