  62
        -98.94491957
 C          1.9627972697        0.8527456914        0.0694032408
 C          2.2587763070       -0.1112351794        1.0603286256
 C          2.3500049510       -1.5015988188        0.5985929808
 C          2.1171569978       -1.7792023139       -0.6974813934
 C          2.2062554347       -3.1471993334       -1.3091772533
 C          3.6161143043       -3.4285970370       -1.8476720479
 C          4.7309662609       -3.1155899065       -0.8497218426
 H          5.6775463831       -3.3790071147       -1.3262645131
 H          4.7505280062       -2.0390670405       -0.6657745364
 C          4.6090141591       -3.8552627909        0.4897322761
 H          3.9334874595       -4.7047048216        0.3836412728
 H          5.5895032334       -4.2511480442        0.7621022221
 C          4.1426899449       -2.9817217071        1.6558014913
 H          4.7588912006       -2.0807379928        1.7081134024
 H          4.2980274891       -3.5396349811        2.5829894409
 C          2.6696119137       -2.5541701445        1.6228851863
 H          2.0317281907       -3.4300734706        1.4845249974
 H          2.4284572079       -2.1081495584        2.5925697238
 H          3.6699052837       -4.4788400346       -2.1398330905
 H          3.7726427864       -2.8178731062       -2.7396952653
 H          1.9345168623       -3.8895952005       -0.5609635602
 H          1.4908619252       -3.1980673403       -2.1319409118
 O          1.8206512912       -0.8283667507       -1.6194759273
 C          1.7223377197        0.5060499121       -1.2603685048
 O          1.4365708230        1.2730938398       -2.2003187116
 O          2.4355181898        0.1791645390        2.2761692620
 C          1.7960865032        2.3049339717        0.4779272513
 C          0.3946417851        2.7588587031        0.1485159064
 C          0.1004942220        3.9898072631       -0.4231987551
 C         -1.2070345540        4.3207822376       -0.7356760181
 C         -2.2402195273        3.4334716915       -0.4994342743
 C         -1.9579800746        2.2070291792        0.0927469072
 C         -0.6534941039        1.8916476575        0.4306471284
 H         -0.4477180877        0.9345396658        0.8892457054
 N         -2.9826844403        1.2842228732        0.3717300131
 S         -2.6207778689       -0.3613202443        0.2403188304
 O         -2.0084309845       -0.8002673357        1.4704726616
 O         -1.8855693402       -0.6262391622       -0.9759342033
 C         -4.2696722627       -1.0328541498        0.1278761992
 C         -5.0153262345       -1.1516562249        1.2857939687
 C         -6.3098128152       -1.6390965162        1.2017046965
 C         -6.8345939212       -1.9971268563       -0.0314415983
 C         -6.0736658735       -1.8746024237       -1.1842600377
 C         -4.7785998700       -1.3859506435       -1.1073903662
 H         -4.1461690552       -1.2786444121       -1.9743040119
 H         -6.4822901415       -2.1568898088       -2.1411072389
 H         -7.8419952946       -2.3770149924       -0.0943296645
 H         -6.9032960616       -1.7381686613        2.0961370165
 H         -4.5603565814       -0.8694594002        2.2208324210
 H         -3.8463012299        1.5078421480       -0.1048794487
 H         -3.2551368903        3.6831317879       -0.7689599912
 H         -1.4213146764        5.2772444429       -1.1879238172
 H          0.8961962141        4.6841306689       -0.6381893232
 H          1.9160520373        2.3180944648        1.5721989645
 C          2.8742969338        3.1676651359       -0.1436879329
 C          3.3591855915        4.3992411314        0.5597357569
 C          4.2354777721        3.1864914522        0.4826680206
 H          5.0999506972        3.2113997344       -0.1635776733
 H          4.3752421805        2.5962227292        1.3766839821
 H          3.6264364705        5.2602414277       -0.0340856245
 H          2.9113353779        4.6392309504        1.5121602650
 H          2.8203377713        3.1794057714       -1.2266342780
