  62
        -98.94043983
 C          2.0430021310        0.4591260336        0.0622872045
 C          2.6946705279       -0.7107670386        0.5309870487
 C          4.0491761906       -0.9561242484        0.0220567129
 C          4.5808100647       -0.0940978654       -0.8635000285
 C          5.9676592633       -0.1898697045       -1.4287728414
 C          6.9726727086        0.5918483871       -0.5712977524
 C          6.8803763523        0.2837865288        0.9231791279
 H          7.6553205551        0.8679221438        1.4242289583
 H          5.9176870978        0.6357449528        1.3008829610
 C          7.0499736892       -1.2002845935        1.2771061660
 H          7.7248568674       -1.2817284580        2.1318255608
 H          7.5166212333       -1.7289283606        0.4451205251
 C          5.7524162668       -1.9119632889        1.6649609858
 H          6.0129967037       -2.8796921502        2.1019144650
 H          5.2340089607       -1.3349597574        2.4349687364
 C          4.7685984486       -2.1784951236        0.5185635148
 H          5.2865621946       -2.6805187041       -0.3013760332
 H          3.9919174680       -2.8502432272        0.8959939500
 H          6.7910971895        1.6597895085       -0.7125511357
 H          7.9792927407        0.3682802515       -0.9292841990
 H          6.2591258636       -1.2369237359       -1.4855049022
 H          5.9584343815        0.2302920323       -2.4359280682
 O          3.9195109736        0.9999306431       -1.3129216576
 C          2.6385614855        1.3119174531       -0.8683665316
 O          2.1745269707        2.3476097471       -1.3767289861
 H         -1.3145181143       -0.9775650981        1.3492137817
 C         -1.3466477036       -0.7639637653        0.2893759547
 C         -0.3945613451        0.0781262106       -0.2658262234
 C         -0.4398285225        0.3267825054       -1.6341156354
 C         -1.4138075301       -0.2591667322       -2.4221370298
 C         -2.3619444654       -1.0996057830       -1.8645263624
 C         -2.3260592889       -1.3525977588       -0.5002671989
 N         -3.3101236360       -2.1847341374        0.0728436952
 S         -4.8917690711       -1.6449812004       -0.0831134470
 O         -5.6434409032       -2.3519045230        0.9282778128
 O         -5.3225565668       -1.8270373209       -1.4451468906
 C         -4.7874882971        0.0916711575        0.3071251265
 C         -4.7806939242        0.4655692204        1.6365200547
 C         -4.5979839367        1.8010531405        1.9564500565
 C         -4.4109016207        2.7329671635        0.9467569889
 C         -4.4213796573        2.3415634984       -0.3827575595
 C         -4.6112599960        1.0084201111       -0.7098096742
 H         -4.6295569826        0.6658789521       -1.7311628022
 H         -4.2751857645        3.0689039586       -1.1649166554
 H         -4.2523500721        3.7695056403        1.1975178110
 H         -4.5922406645        2.1098321309        2.9894980659
 H         -4.9303314673       -0.2897300074        2.3916255326
 H         -3.1219491094       -2.4182048080        1.0377033029
 H         -3.1328850732       -1.5578216919       -2.4628814559
 H         -1.4356456314       -0.0592169327       -3.4828111744
 H          0.2936919295        0.9885839130       -2.0693547489
 C          0.6510772402        0.7185087397        0.6101311171
 H          0.6340102539        0.1920450035        1.5776821142
 C          0.3657662387        2.1883684255        0.8884175928
 C         -0.6641640568        2.9880144962        0.1534812842
 C         -0.9116007807        2.5785198345        1.5719858149
 H         -0.8762086358        3.3297758487        2.3458387853
 H         -1.6395936573        1.7992387715        1.7424601689
 H         -1.2342593126        2.5010768893       -0.6216787908
 H         -0.4313147334        4.0197353480       -0.0598845268
 H          1.2607751281        2.7234616897        1.1878735192
 O          2.1632981599       -1.5102526341        1.3488884431
