  62
        -98.93050681
 C         -2.3525967404       -1.0519300697       -0.5600582107
 C         -3.5134407305       -0.9290902301        0.2441004593
 C         -4.3667563606        0.2564191199        0.0379500696
 C         -4.0044553908        1.1546812702       -0.8962379802
 C         -4.6856683809        2.4437010702       -1.2735624898
 C         -4.4643713011        3.5611163199       -0.2424164895
 C         -4.6347077711        3.1340525795        1.2128104203
 H         -4.3613058012        3.9849561394        1.8423277906
 H         -3.9323009410        2.3285917896        1.4348258501
 C         -6.0458633610        2.6996820392        1.6018024102
 H         -6.7427475111        3.5141168492        1.3921533404
 H         -6.0463838810        2.5323920789        2.6819142901
 C         -6.5642280408        1.4273895493        0.9269733998
 H         -6.9000618008        1.6263555995       -0.0872646401
 H         -7.4450467308        1.0983204190        1.4858733197
 C         -5.5816849507        0.2608111994        0.9339845895
 H         -6.1273375205       -0.6583440106        0.6889834093
 H         -5.2094385807        0.1084534292        1.9535084595
 H         -5.1527914812        4.3774200299       -0.4677059493
 H         -3.4450661812        3.9359720401       -0.3628162394
 H         -5.7458885009        2.2718644201       -1.4342596699
 H         -4.2519531610        2.7583065405       -2.2254430898
 O         -2.8746229807        1.0017072105       -1.6428508402
 C         -2.0249008206       -0.0830090094       -1.5077181505
 O         -1.0453558006       -0.0461689090       -2.2775876104
 O         -3.8374334604       -1.7884677203        1.1077045790
 C         -1.5112636803       -2.2995416296       -0.3556036211
 C         -0.3329632803       -2.0432990197        0.5479253890
 C         -0.1104602102       -2.8288937400        1.6723940588
 C          0.9903245497       -2.6057871000        2.4818930589
 C          1.8924449696       -1.5997637498        2.1856818492
 C          1.6776363195       -0.8086865995        1.0646307394
 C          0.5702868895       -1.0292057595        0.2590826293
 H          0.4095365195       -0.4144929693       -0.6150527705
 N          2.5984329993        0.2202035007        0.7453484297
 S          4.1261004694       -0.3495092390        0.2848056196
 O          4.0203111396       -1.1253082687       -0.9327996506
 O          4.7184931695       -1.0221780892        1.4121265194
 C          4.9843716992        1.1792653712       -0.0281801700
 C          5.5616453591        1.8460860810        1.0351944202
 C          6.2102675789        3.0475789812        0.7991083805
 C          6.2686826989        3.5598011015       -0.4885242393
 C          5.6840950490        2.8787907617       -1.5455928295
 C          5.0331073192        1.6767669516       -1.3160199199
 H          4.5734173893        1.1095703817       -2.1099737000
 H          5.7325850990        3.2777954020       -2.5460760894
 H          6.7751899488        4.4944569417       -0.6707796191
 H          6.6682851188        3.5792245810        1.6174894307
 H          5.4989455991        1.4049767508        2.0160482301
 H          2.2415315193        0.7830439708       -0.0181494002
 H          2.7645415395       -1.4301520698        2.7950648393
 H          1.1495193198       -3.2239150802        3.3524564687
 H         -0.8115565001       -3.6147877301        1.9136037486
 H         -2.1821055502       -2.9975130099        0.1698788887
 C         -1.1143284201       -2.9620925192       -1.6695026112
 C          0.2875347499       -3.0395291989       -2.1887685712
 C         -0.3807468300       -4.2707250091       -1.6591630916
 H         -0.6800830198       -5.0409968090       -2.3535029418
 H         -0.0462019899       -4.6422884293       -0.7020120817
 H          0.4280598199       -2.9411972986       -3.2547556912
 H          1.0878784898       -2.6018352689       -1.6116008011
 H         -1.8891252801       -2.8497615091       -2.4220149012
