  62
        -98.93756089
 C         -1.4696924677       -0.5908468343       -0.5711682703
 C         -2.7390984323       -1.1391573107       -0.2556135823
 C         -3.7297164451       -0.2164063630        0.3120046183
 C         -3.3877753113        1.0644067801        0.5380780892
 C         -4.2435748518        2.1281389773        1.1740736313
 C         -5.5043701645        2.5478542886        0.3939088145
 C         -6.7789588643        1.7989225781        0.8023237215
 H         -6.6583977672        1.4321138468        1.8224292703
 H         -7.6108476178        2.5059449973        0.8200742540
 C         -7.1947097599        0.6421527774       -0.1114430914
 H         -7.6664096311        1.0487576465       -1.0089121591
 H         -7.9472098593        0.0528886330        0.4170217018
 C         -6.0687688449       -0.2862549788       -0.5668868356
 H         -6.5191362425       -1.1624860713       -1.0373869612
 H         -5.4750360020        0.2081844191       -1.3392623163
 C         -5.1152395080       -0.7405251206        0.5553024896
 H         -5.4821215692       -0.4160306522        1.5280493656
 H         -5.0393310229       -1.8296661718        0.5620221383
 H         -5.3232171245        2.4390874240       -0.6750382546
 H         -5.6565750231        3.6105271673        0.5894426126
 H         -4.5302988887        1.7937193493        2.1739227709
 H         -3.5894939768        2.9950811727        1.2892773547
 O         -2.1539494659        1.5501267473        0.2366270052
 C         -1.1701820367        0.7504933097       -0.3299532843
 O         -0.1135787375        1.3617944237       -0.5734654518
 H          1.8914342288       -0.3626405170       -0.2584073601
 C          1.6365414290       -1.2424090770        0.3062935489
 C          0.4921427441       -1.9598744505       -0.0104438827
 C          0.1663247243       -3.0759750043        0.7551992766
 C          0.9700174150       -3.4653049653        1.8099391806
 C          2.1078698702       -2.7445458045        2.1260007413
 C          2.4379834473       -1.6227769686        1.3741089665
 N          3.5971366306       -0.8872245318        1.6623536976
 S          3.5592410235        0.7919162414        1.6282989034
 O          4.6638699057        1.1804034248        2.4836342187
 O          2.2620387826        1.2995229424        2.0055629909
 C          3.9834553359        1.2007463410       -0.0508029210
 C          5.2435903066        0.8406549157       -0.4886193668
 C          5.6134002387        1.1424409231       -1.7886144387
 C          4.7211762763        1.7980418881       -2.6242609096
 C          3.4622686857        2.1547960401       -2.1673144089
 C          3.0841107231        1.8568253435       -0.8662632919
 H          2.1022882052        2.0995305192       -0.4892432927
 H          2.7635852250        2.6602274260       -2.8153347879
 H          5.0067635993        2.0322128099       -3.6378411735
 H          6.5918314771        0.8661420430       -2.1471732845
 H          5.9073456783        0.3408471615        0.1969966430
 H          4.1156861613       -1.2211349798        2.4622384539
 H          2.7357961276       -3.0435075166        2.9519095932
 H          0.7073252054       -4.3340049244        2.3947508031
 H         -0.7347234996       -3.6247333698        0.5209658490
 C         -0.4251054838       -1.5419472038       -1.1354886971
 H         -0.9902510443       -2.4315566751       -1.4462983897
 C          0.3158394030       -0.9969865680       -2.3378855176
 C          1.1225336640       -1.9410970925       -3.1769522189
 C         -0.1507672238       -1.3619544032       -3.7140572483
 H         -0.0920169518       -0.6150553623       -4.4913675726
 H         -1.0115447509       -2.0095991546       -3.7964141519
 H          1.1241211257       -2.9822393080       -2.8915428316
 H          2.0592505306       -1.5945641359       -3.5851092844
 H          0.6981328879        0.0053065156       -2.1979846893
 O         -3.0319331751       -2.3511645981       -0.4393999798
