  62
        -98.94417478
 C         -0.8071320564       -1.1987122006        0.2842319097
 C         -1.5230962551       -0.3997053501        1.2109294933
 C         -2.4200747878        0.6116549994        0.6369502907
 C         -2.4453950694        0.7835406747       -0.6968041908
 C         -3.3803440581        1.7031925577       -1.4260157807
 C         -4.6787639734        0.9767871095       -1.8081291623
 C         -5.3226791328        0.2050236010       -0.6561917521
 H         -6.2436391714       -0.2407835579       -1.0382319300
 H         -4.6658051362       -0.6183973692       -0.3661156910
 C         -5.6423711811        1.0569938525        0.5801841566
 H         -5.6460620407        2.1137735390        0.3110551761
 H         -6.6472724887        0.8077055906        0.9273987910
 C         -4.6959292212        0.8393318948        1.7623498623
 H         -4.6206735740       -0.2291452722        1.9809763946
 H         -5.1320614103        1.3213704078        2.6414331440
 C         -3.2779290475        1.3980495676        1.5874860943
 H         -3.3352596248        2.4448974888        1.2832879555
 H         -2.7768115473        1.3453992094        2.5586486252
 H         -5.3861084595        1.7136164017       -2.1929517933
 H         -4.4559664912        0.2686999012       -2.6095768294
 H         -3.6060038939        2.5618904374       -0.7971134535
 H         -2.8884365361        2.0425483477       -2.3383503833
 O         -1.6500409460        0.0857574732       -1.5441036784
 C         -0.8270783284       -0.9351400035       -1.0863924399
 O         -0.1835766114       -1.5026828580       -1.9875061265
 O         -1.4261324524       -0.5357173184        2.4606360656
 C          0.0587725994       -2.3161311820        0.8365104159
 C          1.4202497070       -2.2969866297        0.1888819278
 C          1.9993385364       -3.3899725840       -0.4409492315
 C          3.2548345307       -3.2793403242       -1.0134628093
 C          3.9527843756       -2.0874395257       -0.9734297146
 C          3.3789327135       -0.9846374684       -0.3480667894
 C          2.1297040907       -1.1031195191        0.2360325957
 H          1.6890615709       -0.2520208685        0.7344182743
 N          4.0364163677        0.2481031523       -0.3363366962
 S          3.6177689396        1.5049376175        0.6606242533
 O          4.6630794266        2.4835755336        0.4470493592
 O          3.4361985200        1.0746288128        2.0278628924
 C          2.0915546149        2.1391729352       -0.0007998826
 C          1.9745098518        2.3042314587       -1.3660795758
 C          0.8121163801        2.8597396169       -1.8753592363
 C         -0.2038365602        3.2465015427       -1.0156018824
 C         -0.0750200787        3.0660741228        0.3523031934
 C          1.0827407205        2.5064589365        0.8668469182
 H          1.2166155916        2.3393028097        1.9244770299
 H         -0.8689346069        3.3553445554        1.0218213287
 H         -1.1022296992        3.6912620014       -1.4125316076
 H          0.7021459914        2.9896622672       -2.9400216226
 H          2.7847556212        1.9969745175       -2.0063653964
 H          4.9819323776        0.2730808739       -0.6824998637
 H          4.9268607172       -2.0017591232       -1.4298041542
 H          3.6941660406       -4.1347587326       -1.5040651266
 H          1.4629740680       -4.3221812129       -0.5046334509
 H          0.1939589443       -2.0576516400        1.9011771172
 C         -0.6078930719       -3.6841824593        0.8033280505
 C         -2.1005597775       -3.8190987616        0.7877793515
 C         -1.3017248097       -4.2006840215       -0.4202592391
 H         -1.2071679597       -5.2497493298       -0.6596953337
 H         -1.3313928586       -3.5556305567       -1.2843009359
 H         -2.5505552881       -4.6022197831        1.3795318618
 H         -2.6854411268       -2.9114546851        0.7490897013
 H         -0.0703838702       -4.4124085302        1.4030859718
