  62
        -98.95113451
 C         -1.9896239408        0.9122959340       -0.1154648112
 C         -1.5289030464        1.8446921540        0.8460770565
 C         -0.4886021144        2.7780032535        0.3933466243
 C         -0.0687986964        2.7263629887       -0.8837026913
 C          1.0075236781        3.5904953905       -1.4726382132
 C          2.3867638514        2.9252517292       -1.3710222057
 C          2.7276136945        2.4051619401        0.0254509140
 H          2.0767528183        1.5639873199        0.2748443826
 H          3.7460098798        2.0106631885       -0.0133066086
 C          2.6282121951        3.4532784234        1.1422928359
 H          3.4989372749        3.3506722722        1.7932868110
 H          2.6542214822        4.4582026064        0.7180372457
 C          1.3915729264        3.3041088840        2.0313840084
 H          1.5424238163        3.9073240418        2.9311887652
 H          1.2997831714        2.2607387706        2.3472587886
 C          0.0621174048        3.7438767820        1.4030485614
 H         -0.6823232912        3.7985314253        2.2030671903
 H          0.1717974861        4.7399968540        0.9679471619
 H          2.4205072655        2.0809976953       -2.0633797810
 H          3.1402942879        3.6517687008       -1.6807403513
 H          0.7733006702        3.7567756889       -2.5255852325
 H          1.0164615891        4.5489549196       -0.9572290272
 O         -0.5661690033        1.8479428946       -1.7902640865
 C         -1.5036929186        0.8909392387       -1.4222846074
 O         -1.8138842110        0.1056825609       -2.3375518143
 H         -0.7161935122       -0.7837799930        1.5374870437
 C         -1.0770534086       -1.6171078228        0.9517795956
 C         -2.2754887473       -1.4961304918        0.2571690695
 C         -2.7367075969       -2.5872777835       -0.4665154968
 C         -1.9963667577       -3.7566141498       -0.5115008523
 C         -0.7828991582       -3.8564319576        0.1438910069
 C         -0.3173867226       -2.7737566386        0.8831074742
 N          0.9075307196       -2.8434977803        1.5713842498
 S          2.0317497535       -1.6109985653        1.4608725584
 O          3.1990748869       -2.1285505829        2.1401032087
 O          1.4806651189       -0.3865756845        1.9793847764
 C          2.3858567884       -1.4446137371       -0.2782101909
 C          3.5507649838       -1.9819786561       -0.7897533132
 C          3.7989928734       -1.8716590438       -2.1485542089
 C          2.8783262249       -1.2401204780       -2.9717085157
 C          1.7101646265       -0.7113933561       -2.4443103229
 C          1.4627282302       -0.8113913334       -1.0849213912
 H          0.5627644195       -0.4055398323       -0.6503363398
 H          0.9777471548       -0.2257193545       -3.0710907998
 H          3.0694478303       -1.1576596778       -4.0300582674
 H          4.7068587539       -2.2798600795       -2.5626467132
 H          4.2382805242       -2.4624409940       -0.1126438211
 H          1.3708630433       -3.7381188740        1.4986621360
 H         -0.1994184684       -4.7629118301        0.0894282118
 H         -2.3631642386       -4.5976833001       -1.0798396149
 H         -3.6688424847       -2.5201059353       -1.0024243577
 C         -2.9768090289       -0.1598495246        0.3162286898
 H         -3.2032293603        0.0606674991        1.3699879450
 C         -4.2584668445       -0.0969229471       -0.4844169466
 C         -5.5283134683       -0.6433690003        0.0943697618
 C         -5.3437801435        0.8371557939       -0.0436001735
 H         -5.9102426796        1.3614205136       -0.7984843307
 H         -5.1670936943        1.4179833510        0.8501459318
 H         -6.2267761330       -1.1351606069       -0.5655044637
 H         -5.4825947746       -1.0690017291        1.0854782197
 H         -4.0932920618       -0.2011457716       -1.5503080229
 O         -1.9706990248        1.8930347341        2.0261695499
