  62
        -98.94947114
 C         -1.0489944844       -1.7410843173        0.1107127368
 C         -1.6851252610       -0.9680153297        1.1106569771
 C         -2.8343546030       -0.1686199346        0.6720391754
 C         -3.2106522581       -0.1964182264       -0.6194379758
 C         -4.3621654280        0.5619549430       -1.2216057954
 C         -4.0267515873        2.0170652232       -1.5774007685
 C         -3.9274082215        2.9719716573       -0.3869849497
 H         -4.8124691625        2.8642745000        0.2416964893
 H         -3.9337593626        3.9863683476       -0.7909416422
 C         -2.6613312551        2.7925595854        0.4619739898
 H         -2.2326998744        3.7732503779        0.6848613544
 H         -1.9104318361        2.2526535645       -0.1210995075
 C         -2.8881801035        2.0851042664        1.7983315088
 H         -3.5269401635        2.7053623365        2.4316855541
 H         -1.9222473519        1.9810848039        2.2983465583
 C         -3.5241400926        0.6934335264        1.6871679826
 H         -4.5825359607        0.7854047967        1.4434000381
 H         -3.4303130114        0.1980338039        2.6570846469
 H         -4.8132212970        2.3800241623       -2.2436251146
 H         -3.0845488377        2.0346858239       -2.1317018771
 H         -5.2156390788        0.5387792479       -0.5427622949
 H         -4.6330475104        0.0360312665       -2.1397487969
 O         -2.5809817806       -0.9608404952       -1.5502313582
 C         -1.4792819318       -1.7368354432       -1.2170134338
 O         -0.9908800642       -2.3695991404       -2.1728244369
 O         -1.3110870545       -0.9475636719        2.3148584778
 C          0.1698221255       -2.5585830736        0.4860309635
 C          1.4139922473       -2.0874084081       -0.2318891411
 C          2.5423711611       -2.8923930081       -0.3545778332
 C          3.6782106113       -2.4158591318       -0.9845993838
 C          3.7263079356       -1.1289794545       -1.4915358251
 C          2.6045882404       -0.3171291522       -1.3753060594
 C          1.4677260489       -0.8026164015       -0.7484945326
 H          0.5968001932       -0.1706363924       -0.6988604172
 N          2.5934059707        0.9880143943       -1.8846570909
 S          1.6630043979        2.1786025280       -1.1746957632
 O          0.2638622082        1.9641486583       -1.4471670993
 O          2.2233397051        3.4111462730       -1.6866664241
 C          2.0039392644        2.0438596504        0.5703489728
 C          3.2613547767        2.4118414802        1.0098079559
 C          3.5735169083        2.2639555280        2.3509539107
 C          2.6326146088        1.7414059518        3.2263721190
 C          1.3740758816        1.3813490158        2.7718070134
 C          1.0548385944        1.5373431823        1.4325309893
 H          0.0823870790        1.2631632797        1.0562711856
 H          0.6357119104        0.9613150509        3.4370834432
 H          2.8791962730        1.6153881806        4.2687717676
 H          4.5493683101        2.5494590616        2.7092914394
 H          3.9631573086        2.8196660889        0.3006347997
 H          3.4798608763        1.3349996964       -2.2178161701
 H          4.6136731021       -0.7599355666       -1.9821048029
 H          4.5435206672       -3.0541639371       -1.0782963076
 H          2.5262766298       -3.8961921246        0.0379802766
 H          0.3184032956       -2.3799250384        1.5627339495
 C         -0.0890587238       -4.0386367765        0.2736984255
 C          0.4441723601       -5.0567454019        1.2358668891
 C         -1.0218474140       -4.7501314491        1.2065578855
 H         -1.7001760386       -5.4839147943        0.7979310114
 H         -1.4404789144       -4.1745420249        2.0193793183
 H          0.7745877585       -6.0081204624        0.8468485375
 H          1.0126452630       -4.7008737347        2.0819260074
 H         -0.1380223417       -4.3024729022       -0.7767289616
