  62
        -98.94084121
 C         -2.5729426721       -0.2088468229       -0.4070089014
 C         -2.0163097985       -0.7247569723        0.7856249764
 C         -1.3853553344       -2.0571760601        0.7059457683
 C         -1.4162248456       -2.7202481449       -0.4647465826
 C         -0.8415510139       -4.0723303499       -0.8022414639
 C          0.6806669634       -4.0460045033       -0.9858651216
 C          1.4446009543       -3.3574754632        0.1409672138
 H          2.5077670152       -3.3905051119       -0.1147934795
 H          1.1630543184       -2.3031869619        0.1769478996
 C          1.2748427534       -3.9857166613        1.5232154751
 H          1.5335712937       -5.0456734134        1.4698987563
 H          1.9965783508       -3.4972074556        2.1821921036
 C         -0.1097026304       -3.8452328924        2.1653585887
 H          0.0116368821       -4.0169171583        3.2386786374
 H         -0.7983253523       -4.6069790482        1.8073682468
 C         -0.7395422575       -2.4653830711        2.0066608944
 H         -1.5161449989       -2.3374818674        2.7699256014
 H          0.0093366323       -1.6930598518        2.2214085799
 H          1.0299563800       -5.0754101688       -1.0913496460
 H          0.9046320977       -3.5119851916       -1.9130862712
 H         -1.1213813885       -4.8015003245       -0.0476878102
 H         -1.2999172991       -4.3747854744       -1.7469133947
 O         -2.0125413865       -2.2006108732       -1.5792563013
 C         -2.5548001269       -0.9316964696       -1.5961771322
 O         -2.9975731274       -0.5693997635       -2.7077233148
 O         -2.0401019036       -0.0997414782        1.8793580809
 C         -3.1159993213        1.2079384167       -0.4355488947
 C         -2.0410195769        2.1635139495        0.0275476043
 C         -2.2950677367        3.2794480896        0.8149286814
 C         -1.2541218696        4.0899794246        1.2347996035
 C          0.0556001149        3.7956954442        0.9023431093
 C          0.3176973040        2.6909120414        0.1004478520
 C         -0.7303811416        1.9088291863       -0.3530837735
 H         -0.5132250859        1.0560726256       -0.9799377976
 N          1.6329591989        2.3448448358       -0.2698673911
 S          2.0041067018        0.6916191053       -0.2236463051
 O          1.5386193288        0.0712985781       -1.4394441555
 O          1.5450611453        0.1153202403        1.0183366997
 C          3.7860433316        0.7650762729       -0.2460529806
 C          4.4131956226        1.1062486050       -1.4296482170
 C          5.7958322057        1.1945859928       -1.4536875559
 C          6.5244648624        0.9405451533       -0.3007985106
 C          5.8814350162        0.5960789252        0.8783501693
 C          4.4981054887        0.5086688371        0.9097692772
 H          3.9535403147        0.2403048093        1.8008279544
 H          6.4500847864        0.3956782495        1.7720362612
 H          7.6005447050        1.0092191858       -0.3227773543
 H          6.2992202344        1.4598538918       -2.3693191262
 H          3.8052172984        1.2844625783       -2.3012614275
 H          2.3243138986        2.8732715041        0.2471090533
 H          0.8675844991        4.4106178801        1.2601627275
 H         -1.4645364103        4.9512464026        1.8507405625
 H         -3.3063496868        3.5062788403        1.1112546410
 H         -3.3445636401        1.4258930528       -1.4900414194
 C         -4.3932726371        1.3091854058        0.3730486561
 C         -5.4695818730        2.2731175383       -0.0248274631
 C         -5.6686031909        0.8020968625       -0.2279371205
 H         -6.3668852598        0.2801393622        0.4087627262
 H         -5.6167223137        0.4096627489       -1.2333983110
 H         -6.0373292984        2.7613902181        0.7528595168
 H         -5.2966138581        2.8837604717       -0.8981587095
 H         -4.2281510540        1.1266792774        1.4287823530
