  62
        -98.93698604
 C         -1.8186792306       -0.5522942376        1.0970843458
 C         -3.0497853056       -1.0079744918        0.5624162870
 C         -4.0789872334        0.0269658394        0.3560317560
 C         -3.8063406991        1.3097229714        0.6509822535
 C         -4.7414444965        2.4621968002        0.4281083850
 C         -4.5346579474        3.0871576945       -0.9587052933
 C         -4.5103219143        2.0685072402       -2.0983753587
 H         -4.3901935235        2.6255765165       -3.0301851387
 H         -3.6286403936        1.4324152087       -1.9899940819
 C         -5.7633113887        1.1862019391       -2.1882591603
 H         -6.0759692984        1.1275724242       -3.2330181763
 H         -6.5808550536        1.6456687997       -1.6314330059
 C         -5.5639906725       -0.2504787102       -1.7019038551
 H         -4.6889230959       -0.6848078523       -2.1920542066
 H         -6.4341753608       -0.8369134784       -2.0089473893
 C         -5.4054322926       -0.4263290568       -0.1864073696
 H         -6.2252328045        0.0773052627        0.3299405131
 H         -5.4681316052       -1.4968893898        0.0302610235
 H         -5.3323093671        3.8115977195       -1.1333067107
 H         -3.5827824797        3.6233000317       -0.9594526999
 H         -5.7678858219        2.1158253487        0.5321972205
 H         -4.5439380792        3.2179231893        1.1902951327
 O         -2.6091962371        1.7119897408        1.1480436094
 C         -1.5929433660        0.7989222302        1.3748238558
 O         -0.5468958687        1.3034441796        1.8268808497
 O         -3.3003144541       -2.2029918100        0.2642397198
 C         -0.6391364546       -1.4685790144        1.3820322356
 C          0.2769754564       -1.5427299338        0.1863940142
 C         -0.2314062972       -1.7131607650       -1.0972154940
 C          0.6142590568       -1.7516054970       -2.1910601842
 C          1.9832348018       -1.6307069082       -2.0276547421
 C          2.5023659529       -1.4665952901       -0.7508500822
 C          1.6501982383       -1.4219145336        0.3466167254
 H          2.0599893838       -1.2721843934        1.3366032254
 N          3.9005468569       -1.3489908167       -0.5951087778
 S          4.6248784444        0.0588678652       -1.1469675359
 O          4.1133339265        0.3577592064       -2.4588746490
 O          6.0487096152       -0.1585539131       -1.0405426671
 C          4.1241079805        1.3048126358        0.0274183074
 C          5.0408182073        1.7710336700        0.9491904506
 C          4.6217714217        2.6775918495        1.9094996285
 C          3.2951497562        3.0802836807        1.9457614251
 C          2.3842803875        2.5982151386        1.0177322130
 C          2.8028254314        1.7068533479        0.0424865827
 H          2.1175999448        1.3183529145       -0.6944547047
 H          1.3442640034        2.8786473348        1.0682680529
 H          2.9623485863        3.7709691518        2.7045061806
 H          5.3255384876        3.0580626782        2.6324000128
 H          6.0576852675        1.4174382469        0.8918014071
 H          4.2179972359       -1.5330730302        0.3467903520
 H          2.6539755900       -1.6429668165       -2.8707788201
 H          0.2041565292       -1.8812171673       -3.1813898384
 H         -1.2978489798       -1.8201066798       -1.2279788981
 H         -0.0783447703       -0.9763131025        2.1928423662
 C         -1.0527551015       -2.8431347396        1.8896201878
 C         -0.9356051938       -4.0919045407        1.0744359688
 C         -0.0079862187       -3.8652684232        2.2277752253
 H         -0.1352215848       -4.4575530428        3.1212092695
 H          1.0194545928       -3.6247258904        1.9994583763
 H         -1.7206857786       -4.8260944626        1.1692940085
 H         -0.5365323859       -4.0128574861        0.0752728295
 H         -1.9069204323       -2.7851990628        2.5559591731
