  62
        -98.93248098
 C          2.5977853950        1.1939280062        0.1931002195
 C          3.0502582659        0.2292975697        1.1268873832
 C          4.2835850778       -0.5043826287        0.7962223814
 C          4.9131325241       -0.2382525954       -0.3632874987
 C          6.1980703401       -0.7819446252       -0.9526989684
 C          6.8735212046       -2.0110301335       -0.3509051013
 C          6.1051347626       -3.3184995723       -0.5433205297
 H          6.6143574184       -4.1019241530        0.0221133921
 H          6.1465434387       -3.5913323520       -1.6008238186
 C          4.6343478469       -3.2861351896       -0.1354668745
 H          4.2060622093       -4.2688633764       -0.3506358144
 H          4.0981772222       -2.5605902440       -0.7505952517
 C          4.3704613150       -2.9781776967        1.3368377130
 H          4.9211084123       -3.6816831278        1.9644889207
 H          3.3032372655       -3.1309141161        1.5192093009
 C          4.7157859924       -1.5483548826        1.7855015264
 H          5.7751155683       -1.4503205677        2.0106578246
 H          4.1642481432       -1.3416335239        2.7074377482
 H          7.0894296391       -1.8440261027        0.7002817998
 H          7.8363942733       -2.1172037535       -0.8580722892
 H          6.9087789846        0.0515153156       -0.9274392707
 H          5.9854929431       -0.9710135373       -2.0097836889
 O          4.4386974871        0.6972526633       -1.2350405598
 C          3.2802372597        1.4258749696       -1.0004643209
 O          2.9970072217        2.2168671269       -1.9172918024
 O          2.4506574984        0.0004221435        2.2126484139
 C          1.3375518910        1.9556746203        0.5604743956
 C          0.1081920526        1.2711510532        0.0198766052
 C          0.0009273983        0.9264267663       -1.3238838235
 C         -1.1433936152        0.3117569678       -1.7989637848
 C         -2.1974138649        0.0230170628       -0.9493698191
 C         -2.0996715397        0.3588713515        0.3938748754
 C         -0.9508019680        0.9808692729        0.8673582378
 H         -0.8735868369        1.2307975961        1.9171594987
 N         -3.1568249736        0.0517015750        1.2644390092
 S         -4.7216711482        0.4539403782        0.8116719414
 O         -4.7374438321        1.6071315472       -0.0575511344
 O         -5.4520726258        0.5743935968        2.0542411291
 C         -5.3004882154       -0.9834868658       -0.0644082673
 C         -5.8497531564       -0.8454230419       -1.3239866004
 C         -6.3110605468       -1.9754141939       -1.9813599793
 C         -6.2165921718       -3.2161424783       -1.3700211974
 C         -5.6636555024       -3.3374211744       -0.1037340982
 C         -5.2016221766       -2.2118298813        0.5592534457
 H         -4.7677778283       -2.2642260429        1.5439001320
 H         -5.5911134350       -4.3042322260        0.3678909673
 H         -6.5758583408       -4.0940193614       -1.8834438998
 H         -6.7410523717       -1.8833469797       -2.9657971391
 H         -5.8975717446        0.1386067756       -1.7627249606
 H         -2.9811659848        0.2942593087        2.2286330699
 H         -3.0896491493       -0.4564137469       -1.3176370054
 H         -1.2153128228        0.0524181820       -2.8444354492
 H          0.8209526226        1.1515271178       -1.9892624770
 H          1.2889907443        1.8931460826        1.6596234209
 C          1.4003620427        3.4334702064        0.2002069746
 C          0.5936598659        4.0643441587       -0.8902604996
 C          0.2534333596        4.3386991688        0.5420039555
 H          0.4659554062        5.3147762364        0.9510122939
 H         -0.6428095581        3.8808488290        0.9346511579
 H          1.0654271909        4.8399568765       -1.4737101089
 H         -0.0760712331        3.4407920569       -1.4607954386
 H          2.3963198234        3.8387869940        0.3489154405
