  62
        -98.93461263
 C         -1.6275652176       -0.2506513734        0.3040651794
 C         -2.7868640198       -0.9146149046       -0.1624322588
 C         -3.8760539558       -0.0536731629       -0.6611506714
 C         -3.7151410212        1.2793613866       -0.6877696169
 C         -4.6696612928        2.3311618751       -1.1948787002
 C         -6.1505658950        2.1853111671       -0.8164685838
 C         -6.4129584245        1.5373690820        0.5508910625
 H         -5.4849297484        1.4778390979        1.1220381690
 H         -7.1026471053        2.1678854926        1.1152520306
 C         -7.0353915055        0.1431863667        0.4416614126
 H         -7.5261046646       -0.0973502737        1.3879292124
 H         -7.8080572143        0.1644328631       -0.3300690998
 C         -6.0570947591       -0.9910557284        0.1383953425
 H         -6.6387531695       -1.9004824449       -0.0308632324
 H         -5.4220124818       -1.1751073268        1.0091911479
 C         -5.1347845356       -0.7634151364       -1.0703747238
 H         -4.8228500821       -1.7422462427       -1.4443027361
 H         -5.6527798001       -0.2364760349       -1.8678637352
 H         -6.6683076933        1.6121365569       -1.5844104765
 H         -6.5799300300        3.1885184232       -0.8315563280
 H         -4.5817194698        2.3734505177       -2.2843716007
 H         -4.2834975511        3.2755287700       -0.8041639716
 O         -2.5685993341        1.8777181841       -0.2575967264
 C         -1.5149463828        1.1418513909        0.2504418318
 O         -0.5444568702        1.8312907372        0.6226076447
 O         -2.9330300366       -2.1653146491       -0.1809211700
 C         -0.4183262682       -0.9725340988        0.8761092545
 C          0.4830374331       -1.4891053680       -0.2197881950
 C          0.0719694216       -2.4916152283       -1.0917751416
 C          0.9306147564       -2.9588253642       -2.0695123377
 C          2.2143814157       -2.4544948250       -2.1831130222
 C          2.6326645107       -1.4488479166       -1.3195842699
 C          1.7600220281       -0.9646278047       -0.3553492653
 H          2.0823736332       -0.1724698510        0.3028323542
 N          3.9200392698       -0.9066462810       -1.4214228720
 S          4.7482411439       -0.3873747790       -0.0652230551
 O          6.1390290031       -0.4134464394       -0.4654322478
 O          4.4089578817       -1.1687090517        1.1007936219
 C          4.2413155363        1.3052959235        0.1432873506
 C          3.7464213125        1.7320297661        1.3588548718
 C          3.3749548027        3.0590626120        1.5037347263
 C          3.5069801802        3.9319561362        0.4355403591
 C          4.0101115900        3.4889389934       -0.7783694309
 C          4.3824845710        2.1633872664       -0.9290713020
 H          4.7806601046        1.7829026073       -1.8549532693
 H          4.1100148241        4.1723333294       -1.6063505298
 H          3.2134095928        4.9633828661        0.5509125642
 H          2.9787326727        3.4040911187        2.4452411328
 H          3.6555870747        1.0196768149        2.1642611787
 H          4.5254368969       -1.3570631649       -2.0915770258
 H          2.8883601823       -2.8328108352       -2.9368000480
 H          0.6015964179       -3.7350388337       -2.7440163916
 H         -0.9266695351       -2.8899145561       -1.0009335274
 H          0.1454919555       -0.2087880207        1.4292252606
 C         -0.7735782493       -2.0899446207        1.8387852613
 C          0.2997620432       -2.6288309293        2.7345719991
 C         -0.8157309867       -1.8088164285        3.3089317462
 H         -1.5649743351       -2.3052521792        3.9074172004
 H         -0.5937385967       -0.8025624092        3.6340972232
 H          0.3159718513       -3.6886272649        2.9383758563
 H          1.2818628631       -2.1835388546        2.6641383243
 H         -1.4977284497       -2.7889764673        1.4425526839
