  62
        -98.93606878
 C          1.6819491270        0.1526484251        0.3345700561
 C          2.7936526067        0.8690464298        0.8434264191
 C          4.1230485656        0.2590898332        0.6665495537
 C          4.2199227931       -0.9433296429        0.0702330229
 C          5.4198235855       -1.8227544042       -0.2141534741
 C          6.8380666728       -1.2720160331       -0.0907947237
 C          7.2086739023       -0.2209868546       -1.1369258112
 H          8.1957901622        0.1752322891       -0.8890920420
 H          7.2824838421       -0.7121257268       -2.1105784851
 C          6.2287651351        0.9407222902       -1.2815824592
 H          6.6070474449        1.6012134042       -2.0666529457
 H          5.2609399010        0.5636229056       -1.6189540312
 C          6.0239873229        1.7834733909       -0.0243181290
 H          5.4312876093        2.6578169438       -0.3069236914
 H          6.9894639213        2.1389488697        0.3406773966
 C          5.2908984981        1.0808902821        1.1311950852
 H          4.8790549594        1.8523749367        1.7883669355
 H          5.9740944018        0.4778805441        1.7243218207
 H          7.5140098445       -2.1212032626       -0.2235307568
 H          7.0073178274       -0.8898947565        0.9115529482
 H          5.3218655552       -2.6823884563        0.4581072853
 H          5.2723031327       -2.2090376836       -1.2278880467
 O          3.1153853716       -1.6210288143       -0.3578211109
 C          1.8301763124       -1.1059889867       -0.2465424341
 O          0.9491232202       -1.8644969936       -0.6907368401
 O          2.6806726874        1.9752986501        1.4352338209
 C          0.3108543806        0.7839179263        0.4946483816
 C         -0.6826323377       -0.2230265615        1.0130869154
 C         -0.5283209585       -0.7138297690        2.3074680421
 C         -1.4104563433       -1.6443518517        2.8200813184
 C         -2.4803411962       -2.0882566068        2.0620954846
 C         -2.6418813697       -1.6062065413        0.7694144675
 C         -1.7453811746       -0.6807142076        0.2516249373
 H         -1.8653086336       -0.3617025520       -0.7693738250
 N         -3.7150885455       -2.0327370872       -0.0232568374
 S         -4.4274644907       -0.9908970214       -1.1114601180
 O         -5.7743899837       -1.5004063678       -1.2650682762
 O         -3.6535829234       -0.9008764668       -2.3236667787
 C         -4.4697957461        0.5977879866       -0.2973393109
 C         -3.9407290666        1.7019712374       -0.9332955758
 C         -3.9753620921        2.9294207714       -0.2906034573
 C         -4.5342402425        3.0300525476        0.9737390843
 C         -5.0681812579        1.9128109130        1.5975002729
 C         -5.0389072034        0.6843809236        0.9578656035
 H         -5.4528595371       -0.1995314193        1.4146692047
 H         -5.5045961980        1.9953835269        2.5797584411
 H         -4.5541759016        3.9851109026        1.4744833170
 H         -3.5627737620        3.7997706391       -0.7760421983
 H         -3.5090353514        1.5768914129       -1.9136703598
 H         -4.3826323520       -2.6352089701        0.4335436656
 H         -3.1735879950       -2.8131555970        2.4607382022
 H         -1.2717874970       -2.0228321885        3.8215848346
 H          0.3046072324       -0.3636433779        2.9017878703
 H          0.4555346589        1.5489339319        1.2757762198
 C         -0.1867653900        1.5178829950       -0.7412534010
 C          0.7662917249        2.1772235870       -1.6910311249
 C         -0.0114217463        0.9728533815       -2.1256441636
 H         -0.8166014350        1.1002831931       -2.8353598311
 H          0.5063207534        0.0321418823       -2.2324757360
 H          0.5004524909        3.1394178188       -2.1018804565
 H          1.8234575927        2.0592513936       -1.5024087921
 H         -1.1140835105        2.0474680247       -0.5436319593
