  62
        -98.94388923
 C         -1.7912667391       -1.1780251991        0.3872761654
 C         -1.9774844632       -0.2420079915       -0.6581445179
 C         -3.3683360834       -0.0361909409       -1.0903560761
 C         -4.3531898220       -0.7433570383       -0.5068530748
 C         -5.8147554050       -0.5948249186       -0.8138907004
 C         -6.4729987365        0.4404461492        0.1088094770
 C         -5.7100874144        1.7622995712        0.1965234305
 H         -6.2818537145        2.4255927799        0.8491582898
 H         -4.7463620753        1.5879729852        0.6806974040
 C         -5.4774435352        2.4516126812       -1.1551877444
 H         -6.1633466647        2.0473750928       -1.9005260416
 H         -5.7031970486        3.5148622548       -1.0497613314
 C         -4.0437575293        2.3515837012       -1.6801927050
 H         -3.9379679059        3.0487142507       -2.5159177740
 H         -3.3435912988        2.6680877422       -0.9023252325
 C         -3.6108217852        0.9679924408       -2.1816481476
 H         -4.3421079558        0.5911191271       -2.8997432998
 H         -2.6525987992        1.0877367557       -2.6961690318
 H         -7.4870783269        0.6270058089       -0.2491301093
 H         -6.5394654100        0.0164415862        1.1133815523
 H         -5.9338291869       -0.2980678958       -1.8540012072
 H         -6.2977807643       -1.5616676211       -0.6631369621
 O         -4.1308570322       -1.6515513590        0.4772874781
 C         -2.8523664639       -1.8799228359        0.9592016872
 O         -2.7915068543       -2.7163028392        1.8829127143
 O         -1.0345843479        0.3883190385       -1.2044592575
 C         -0.3979492044       -1.4467357612        0.9270215444
 C          0.2119674455       -0.1694584096        1.4514274689
 C         -0.5180606835        0.5990315632        2.3554066594
 C          0.0069247444        1.7639490621        2.8785704005
 C          1.2713252101        2.1901247347        2.5094446283
 C          2.0110943082        1.4301794761        1.6131741535
 C          1.4829129540        0.2537886068        1.0967384410
 H          2.0739951629       -0.3223982782        0.4060007734
 N          3.3140150834        1.8101973502        1.2516967827
 S          3.7670569310        1.7947712326       -0.3638825499
 O          4.9446155218        2.6376745242       -0.4055517956
 O          2.6817071978        2.1829348020       -1.2323142782
 C          4.2636993498        0.1166951489       -0.6865162504
 C          3.7344659199       -0.5510779949       -1.7729112761
 C          4.1645457208       -1.8417797202       -2.0394568941
 C          5.1108693154       -2.4374470946       -1.2189563914
 C          5.6309873386       -1.7526242016       -0.1307820239
 C          5.2083333432       -0.4609774680        0.1389380109
 H          5.5930773903        0.1066230408        0.9694924135
 H          6.3640806826       -2.2214296428        0.5054642025
 H          5.4416799915       -3.4425928303       -1.4286837621
 H          3.7577033571       -2.3761155540       -2.8835130413
 H          2.9905386090       -0.0533100010       -2.3753615769
 H          3.6396930926        2.6547954197        1.7005999790
 H          1.6815535270        3.1036134515        2.9131525371
 H         -0.5728992609        2.3497444060        3.5762209432
 H         -1.5072872171        0.2667962499        2.6413933997
 H         -0.5337936701       -2.1285390643        1.7796865357
 C          0.4520921767       -2.1411746886       -0.1160042435
 C          1.5541660742       -3.0619395010        0.3119007968
 C          0.3048888560       -3.6207403900       -0.2984113122
 H          0.3523973973       -4.0232751461       -1.2989286987
 H         -0.3989411021       -4.1303562630        0.3437463054
 H          2.4639800441       -3.0823901708       -0.2684276102
 H          1.7030583291       -3.1987950401        1.3722038551
 H          0.5988898745       -1.5383553764       -1.0052175543
