  62
        -98.93548274
 C          1.3324637371        1.3019097034       -0.0080447596
 C          2.5788780904        1.3850891801        0.6669448311
 C          3.4001488947        0.1659072444        0.6915010789
 C          2.9158625264       -0.9575558184        0.1326426983
 C          3.6537626813       -2.2605189380        0.0109147546
 C          4.6835971691       -2.1758052487       -1.1338473512
 C          6.1405545970       -2.2677794463       -0.6800325234
 H          6.7662884583       -1.9842306865       -1.5291001968
 H          6.3713346807       -3.3064813100       -0.4341167546
 C          6.5196712547       -1.4057690704        0.5281020357
 H          7.6106591049       -1.3701095972        0.5632246315
 H          6.1957111458       -1.8975090396        1.4465908026
 C          5.9803517694        0.0305752573        0.5240307408
 H          5.7758600793        0.3617260636       -0.4945234352
 H          6.7587028297        0.6862366472        0.9199649476
 C          4.7275049532        0.2470909870        1.3933749666
 H          4.7624602265        1.2578409326        1.8107473567
 H          4.7408064850       -0.4537838389        2.2327353705
 H          4.5270963242       -1.2358968422       -1.6674476125
 H          4.4988840446       -2.9773759547       -1.8505993965
 H          2.9159179436       -3.0339358060       -0.2015558519
 H          4.1460709134       -2.4952871319        0.9519446793
 O          1.7028834818       -1.0128058729       -0.4693099812
 C          0.8812952486        0.1040816382       -0.5686279240
 O         -0.1814846188       -0.1209974041       -1.1731543950
 O          2.9877382802        2.4375690627        1.2268807905
 C          0.4648178693        2.5510773548       -0.0083223078
 C         -0.8868465284        2.1958958237        0.5521026393
 C         -1.0786676856        2.1671252390        1.9294715283
 C         -2.2828264840        1.7488731635        2.4656802557
 C         -3.3043881442        1.3144356471        1.6392948689
 C         -3.1117743474        1.3188210839        0.2640948118
 C         -1.9252200133        1.7956352326       -0.2745731190
 H         -1.7897431521        1.8049297766       -1.3444329971
 N         -4.1206593126        0.8134623049       -0.5824667006
 S         -4.6261855720       -0.7574537759       -0.2818799456
 O         -5.2906530925       -1.1798028591       -1.4949530957
 O         -5.4366780399       -0.7624230249        0.9119565523
 C         -3.1515740969       -1.7236925227       -0.0142855335
 C         -2.5072896597       -2.2615195914       -1.1088927133
 C         -1.3382489398       -2.9772124542       -0.9145866506
 C         -0.8287162783       -3.1299637473        0.3643162751
 C         -1.4864395827       -2.5821941917        1.4540666692
 C         -2.6618887944       -1.8740881550        1.2672464893
 H         -3.2051891744       -1.4430478455        2.0918717721
 H         -1.0837185696       -2.6985898813        2.4480257203
 H          0.0911374154       -3.6741251711        0.5127678761
 H         -0.8192635777       -3.3972308953       -1.7610748834
 H         -2.9306394314       -2.1162541530       -2.0897614796
 H         -3.8779212827        0.8958333325       -1.5601655566
 H         -4.2394495988        0.9545615152        2.0375081203
 H         -2.4236608997        1.7461799274        3.5359637431
 H         -0.2672009245        2.4678015447        2.5775344266
 H          0.9653820880        3.2294364002        0.7004099898
 C          0.3844682370        3.2932904936       -1.3335249235
 C          1.6206602354        3.4997993743       -2.1560390877
 C          0.5150263273        2.6298341375       -2.6700951811
 H         -0.0929931809        3.0035650077       -3.4815227999
 H          0.6675960525        1.5628987935       -2.6982233002
 H          1.7822615662        4.4614103638       -2.6192666325
 H          2.5261721642        3.0211990291       -1.8119934688
 H         -0.3041643770        4.1314282272       -1.2777687486
