  62
        -98.94451437
 C          1.9557721791        1.0990073857       -0.1687721881
 C          2.4409862518       -0.0463335519       -0.8446175499
 C          3.8952321768       -0.2455563965       -0.7899943422
 C          4.6721047278        0.6521755474       -0.1570061552
 C          6.1710039147        0.5979261164       -0.0367248903
 C          6.6713294820       -0.2788886829        1.1194438147
 C          6.5197628367       -1.7855064779        0.9056410710
 H          6.9599379499       -2.0613220266       -0.0531006264
 H          7.1021861184       -2.2799715049        1.6856613823
 C          5.0723281003       -2.2926174985        0.9743974996
 H          4.4444995167       -1.5404680859        1.4575150097
 H          5.0296582536       -3.1905603483        1.5948546528
 C          4.4597565619       -2.6495753048       -0.3800935534
 H          3.4238440203       -2.9587550258       -0.2173471883
 H          4.9991511812       -3.4937758804       -0.8155153550
 C          4.4547331702       -1.4979093880       -1.3940220926
 H          5.4619911263       -1.3238262709       -1.7721175220
 H          3.8098782443       -1.7801000404       -2.2300022251
 H          7.7319320570       -0.0583702447        1.2603312918
 H          6.1469307831        0.0141551602        2.0318435474
 H          6.6018265424        0.2466315750       -0.9746065201
 H          6.5061499629        1.6225278850        0.1381833371
 O          4.1671158197        1.7574866543        0.4532319655
 C          2.8024052601        1.9945223195        0.4843328807
 O          2.4720588030        3.0195014610        1.1147188219
 H         -1.6777385019       -0.0466484721       -1.1765585669
 C         -1.3397503341       -0.4018731397       -0.2182438782
 C         -0.2742619787        0.2026976636        0.4286459680
 C          0.1355877391       -0.3074388772        1.6587977951
 C         -0.4895603664       -1.4065923629        2.2126193267
 C         -1.5480394446       -2.0135955030        1.5587542259
 C         -1.9712990843       -1.5087229442        0.3359925400
 N         -3.0301158362       -2.1187238245       -0.3545362162
 S         -4.2202249472       -1.2045654044       -1.0874565657
 O         -5.2916823225       -2.1433624502       -1.3368046508
 O         -3.6945405744       -0.5173523573       -2.2384868368
 C         -4.7180261388       -0.0360332649        0.1642707293
 C         -4.2134296071        1.2479468730        0.1444478727
 C         -4.5648557002        2.1203805721        1.1627375844
 C         -5.4090058670        1.6960637040        2.1770138427
 C         -5.9118555183        0.4035260676        2.1798356108
 C         -5.5611997830       -0.4741349992        1.1672325352
 H         -5.9400036514       -1.4825742719        1.1264327554
 H         -6.5724588679        0.0784961873        2.9674622541
 H         -5.6783414740        2.3782552259        2.9679512582
 H         -4.1767793141        3.1266428934        1.1602486399
 H         -3.5645413256        1.5433653582       -0.6632559155
 H         -3.4281659329       -2.9194840320        0.1136210372
 H         -2.0323808189       -2.8790313393        1.9848019527
 H         -0.1527231113       -1.7954968313        3.1617894112
 H          0.9646074094        0.1662147530        2.1676219493
 C          0.4651871021        1.3884669091       -0.1411116187
 H          0.3345564901        2.2379233921        0.5452674323
 C         -0.0092041997        1.8006203054       -1.5186116268
 C         -1.1567339707        2.7521277811       -1.6670703489
 C          0.2373429484        3.2041403846       -1.9807802455
 H          0.5104932792        3.3665128460       -3.0126327855
 H          0.7263394697        3.8742293556       -1.2884120574
 H         -1.6096955254        3.1291458413       -0.7623055285
 H         -1.8477291200        2.6032794255       -2.4840218702
 H          0.0989566987        1.0111661997       -2.2540349140
 O          1.7047502570       -0.8598920844       -1.4608563759
