  62
        -98.93728257
 C         -1.3014155529       -1.5451803617        0.1801008398
 C         -2.3326011418       -1.0705325140        1.0253581283
 C         -3.2118475319       -0.0144417964        0.4868767079
 C         -2.9521568904        0.4768876267       -0.7386909665
 C         -3.7234503653        1.5293850483       -1.4899393174
 C         -3.4592183784        2.9633232548       -0.9933033797
 C         -3.2521310693        3.0993674874        0.5138193302
 H         -2.4855911164        2.3923976758        0.8373790491
 H         -2.8734030480        4.1055379839        0.7132686464
 C         -4.5118214361        2.9062837043        1.3548170492
 H         -4.2307323527        3.0153958902        2.4055712245
 H         -5.2227489259        3.7015791907        1.1176324096
 C         -5.2234082577        1.5654492187        1.1821012112
 H         -5.7058365322        1.5112714626        0.2100377179
 H         -6.0214789929        1.5211903995        1.9293507500
 C         -4.3477538039        0.3375547932        1.4163625768
 H         -4.9958420565       -0.5474956770        1.4492686184
 H         -3.9014827051        0.4044274984        2.4152295157
 H         -4.2904810942        3.5978131405       -1.3045237521
 H         -2.5572071152        3.3288804692       -1.4869606546
 H         -3.4130000160        1.4589182615       -2.5344092032
 H         -4.7833383259        1.2912565071       -1.4479715048
 O         -1.8853091656        0.0621704348       -1.4757206424
 C         -1.0412138367       -0.9544512251       -1.0576996972
 O         -0.1306933017       -1.2185554360       -1.8610320489
 O         -2.5219871238       -1.5149495452        2.1907343923
 C         -0.4363626592       -2.6834670251        0.6912681959
 C          1.0207187449       -2.3615295366        0.4821671823
 C          1.8564366018       -3.0807154346       -0.3610136462
 C          3.1773663739       -2.7024019495       -0.5287707442
 C          3.6944618356       -1.6094152509        0.1417769459
 C          2.8666028209       -0.8844553245        0.9891642883
 C          1.5442724123       -1.2634071189        1.1544780360
 H          0.8979469512       -0.6909787075        1.8092520685
 N          3.3843957250        0.2387528720        1.6723657090
 S          3.8980590339        1.5108083696        0.7090600734
 O          5.0715423713        1.1030283551       -0.0194277571
 O          4.0620334048        2.6296598595        1.6099654680
 C          2.5450458017        1.8147738160       -0.4097984713
 C          1.5337540981        2.6599463808        0.0008797340
 C          0.4486384232        2.8607216255       -0.8356022377
 C          0.3897227965        2.2077843393       -2.0570622610
 C          1.4092198418        1.3560852189       -2.4512474336
 C          2.4989923789        1.1538360830       -1.6202179186
 H          3.3093792243        0.4978662720       -1.8927355560
 H          1.3495653495        0.8353687919       -3.3926130265
 H         -0.4598720104        2.3530122047       -2.7055840196
 H         -0.3475646711        3.5201230088       -0.5281829834
 H          1.6208257633        3.1544896308        0.9555064828
 H          2.7518732217        0.5964218686        2.3748935600
 H          4.7164826157       -1.2929693025        0.0099448393
 H          3.8131797291       -3.2656918096       -1.1949453818
 H          1.4664198487       -3.9222027839       -0.9091843979
 H         -0.6264327948       -2.7042895764        1.7775396403
 C         -0.8319523846       -4.0527714273        0.1588527783
 C         -2.2561234762       -4.3598084666       -0.1927681755
 C         -1.2184649011       -4.2831292141       -1.2702263795
 H         -0.9044168214       -5.2024686219       -1.7427553575
 H         -1.2226844913       -3.4318449526       -1.9323574220
 H         -2.6541057970       -5.3273648018        0.0739997294
 H         -2.9744465545       -3.5564553382       -0.1160693561
 H         -0.2769078447       -4.8486078664        0.6463648648
