  62
        -98.93412225
 C         -2.1831606453       -0.9392545404        0.6262214909
 C         -3.2873203671       -0.8323920155       -0.2513216392
 C         -4.2290356443        0.2763823477        0.0025603277
 C         -3.9896509718        1.1379179799        1.0074467273
 C         -4.7761656135        2.3284991931        1.5162921748
 C         -5.9296076708        2.9097336519        0.7028419461
 C         -5.5116753946        3.5994795698       -0.5956942769
 H         -6.4154298038        3.8704778056       -1.1456640418
 H         -4.9860580560        4.5237697620       -0.3427800912
 C         -4.5975998526        2.7876978858       -1.5101375507
 H         -4.3628823581        3.4052693085       -2.3814381244
 H         -3.6540939822        2.5831667221       -0.9992274966
 C         -5.1826506300        1.4717846195       -2.0180946719
 H         -4.4939898290        1.0734216825       -2.7679454815
 H         -6.1398616514        1.6599528227       -2.5081940848
 C         -5.3846471364        0.3828856455       -0.9514216371
 H         -6.3161513799        0.5272888597       -0.4099963903
 H         -5.4477820193       -0.5815415546       -1.4633869095
 H         -6.6745647844        2.1441275366        0.5076016278
 H         -6.4078078593        3.6619971232        1.3360203114
 H         -5.1603647906        2.0292535863        2.4977949059
 H         -4.0371803471        3.1142897832        1.7038792101
 O         -2.9001238239        1.0029653971        1.8218705523
 C         -1.9883115090       -0.0219940620        1.6612966688
 O         -1.0639468301       -0.0159598007        2.5008168836
 H          1.3985061429       -1.1543670023        0.7727696838
 C          1.1219732021       -1.2702016049       -0.2651073766
 C         -0.1535149583       -1.7077005737       -0.5953790773
 C         -0.4954016477       -1.8251903538       -1.9387392762
 C          0.4230580968       -1.5079143487       -2.9224609577
 C          1.6924066475       -1.0694141473       -2.5902473820
 C          2.0449226697       -0.9501499640       -1.2507254797
 N          3.3436115691       -0.5473778528       -0.8912234245
 S          3.5557971839        0.4143603482        0.4802813763
 O          3.4911808234       -0.4235973034        1.6506470735
 O          2.6570381248        1.5468794624        0.4364472602
 C          5.2391994962        0.9450472461        0.2227150813
 C          5.4889490930        2.1962346710       -0.3080689997
 C          6.8022530299        2.5800249328       -0.5311225944
 C          7.8373794987        1.7095832451       -0.2249390416
 C          7.5711594136        0.4568272771        0.3078382157
 C          6.2607893357        0.0677991335        0.5351261260
 H          6.0051547733       -0.8905221363        0.9559865342
 H          8.3784362468       -0.2162835080        0.5472598794
 H          8.8581636477        2.0105731587       -0.3999233160
 H          7.0121708755        3.5544837044       -0.9417402834
 H          4.6523851657        2.8415450237       -0.5234890644
 H          3.8607462879       -0.1725027539       -1.6756183380
 H          2.4071493553       -0.8219108142       -3.3605918195
 H          0.1451082478       -1.5978438549       -3.9617933548
 H         -1.4930259613       -2.1389906518       -2.2019780079
 C         -1.1316538415       -2.0321770947        0.5090124146
 H         -0.5759355331       -2.0044673630        1.4568200135
 C         -1.7277917636       -3.4166381766        0.3452695417
 C         -0.8798316005       -4.6087838562        0.6666052552
 C         -2.0193486767       -4.2345665053        1.5653051581
 H         -2.9015181587       -4.8569545669        1.5690653959
 H         -1.7893783321       -3.7973440924        2.5265896049
 H         -0.9772831921       -5.4912135695        0.0533127036
 H          0.1243240547       -4.4246676134        1.0191017893
 H         -2.4208778185       -3.4957770091       -0.4810749748
 O         -3.5122892470       -1.6227683917       -1.2048312214
