  62
        -98.94340616
 C          1.5391229498        1.5621094802       -0.2296709097
 C          1.3744336199        0.1589233202       -0.3471614403
 C          2.6113009999       -0.6140533297       -0.5497135802
 C          3.7949773599        0.0219879304       -0.5886467595
 C          5.1285453500       -0.6543255395       -0.7163905494
 C          5.7165549295       -0.9812474901        0.6637495507
 C          4.7378803792       -1.6869813306        1.6028663600
 H          5.2722656489       -1.8913847209        2.5332979301
 H          3.9207446191       -1.0037475307        1.8459226301
 C          4.1558541594       -2.9951183803        1.0491681193
 H          4.1891039192       -3.7525163707        1.8352123190
 H          4.7743840097       -3.3556306200        0.2263433093
 C          2.7013670096       -2.8958527202        0.5851326488
 H          2.3298901197       -3.9098652401        0.4167380982
 H          2.0925250393       -2.4500880705        1.3755784188
 C          2.4670179600       -2.1015173396       -0.7053345409
 H          3.1268038103       -2.4725531693       -1.4921544309
 H          1.4300488702       -2.2669079995       -1.0108811714
 H          6.0304301293       -0.0472719203        1.1359839212
 H          6.6020833596       -1.6038301000        0.5230343507
 H          5.0139766602       -1.5661455693       -1.2992019298
 H          5.8087347502        0.0187755107       -1.2410954688
 O          3.9149894299        1.3683091503       -0.4550344889
 C          2.7988004298        2.1654393302       -0.2582973090
 O          3.0561908797        3.3781691801       -0.1179372184
 H         -2.2156517302        1.4788500901       -0.2423571710
 C         -1.8222038406        1.4118607497        0.7573212791
 C         -0.5517675407        1.8809314396        1.0485626997
 C         -0.0782820011        1.7660309890        2.3530757899
 C         -0.8550859014        1.1877829686        3.3380053393
 C         -2.1167435113        0.7037889787        3.0401305387
 C         -2.5986312609        0.8164458392        1.7414804086
 N         -3.8783823308        0.3469754393        1.4172254779
 S         -4.2397489302       -0.2517399600       -0.0960508825
 O         -4.3231289799        0.8259686604       -1.0509754820
 O         -5.4690621103       -0.9910359602        0.1128275168
 C         -2.9536658400       -1.3974760198       -0.5566527725
 C         -2.5614916203       -2.3606576402        0.3498062472
 C         -1.6202048202       -3.2991528300       -0.0364504929
 C         -1.0959220897       -3.2646407294       -1.3184440027
 C         -1.4964386594       -2.2880637891       -2.2150422024
 C         -2.4334594596       -1.3435223892       -1.8316645323
 H         -2.7648431494       -0.5615203090       -2.4962852721
 H         -1.0761180491       -2.2526055586       -3.2081054022
 H         -0.3667284696       -4.0013441493       -1.6193829427
 H         -1.2938337304       -4.0518258903        0.6635495769
 H         -2.9890562107       -2.3703254606        1.3395184371
 H         -4.3487360110       -0.1662259910        2.1475129875
 H         -2.7229418416        0.2427999383        3.8050176483
 H         -0.4734882718        1.1039079081        4.3445845594
 H          0.9153662788        2.1288775589        2.5807984604
 C          0.3520924597        2.4823212100        0.0017985403
 H          0.7826282195        3.4094653999        0.4151461209
 C         -0.3880847599        2.8747389106       -1.2677390698
 C          0.3403245106        3.0377501211       -2.5673314694
 C         -0.6317555395        1.9121363410       -2.3892019903
 H         -1.5810143793        1.9643250312       -2.9034735306
 H         -0.2483666295        0.9100016010       -2.2809092806
 H          1.3955380606        2.8057699212       -2.5798891192
 H          0.0669329208        3.8615629414       -3.2094045592
 H         -1.1787171300        3.5923413005       -1.0674731297
 O          0.2674748999       -0.4316806098       -0.2866909410
