  62
        -98.94423943
 C         -1.3210217483       -1.4372434528        0.6366404458
 C         -2.1345467201       -1.0249797062       -0.4487412884
 C         -3.1147056835        0.0270784162       -0.1490378618
 C         -3.1794861495        0.5580528882        1.0841636375
 C         -4.1105639573        1.6508475604        1.5324752843
 C         -3.5993413469        3.0606954570        1.2045845319
 C         -3.6824262779        3.4577797175       -0.2700100379
 H         -4.6889284869        3.2641368965       -0.6434127607
 H         -3.5171899503        4.5360397869       -0.3186886577
 C         -2.6527698360        2.7652964261       -1.1745304513
 H         -1.8351078805        2.3673965601       -0.5671740199
 H         -2.2045377651        3.5038722349       -1.8441702525
 C         -3.2243973674        1.6507418671       -2.0519832725
 H         -3.9191065925        2.0796455339       -2.7783237126
 H         -2.3978044140        1.1943212147       -2.6028110724
 C         -3.9506230436        0.5405370725       -1.2819113090
 H         -4.9106303488        0.9025865969       -0.9145723139
 H         -4.1273233388       -0.2903075032       -1.9697034072
 H         -2.5623537170        3.1444183753        1.5400948686
 H         -4.1963650399        3.7687145694        1.7845669831
 H         -5.0951542939        1.5049418425        1.0874487609
 H         -4.2004550007        1.5603237644        2.6172229444
 O         -2.3762622615        0.1429967372        2.0989823286
 C         -1.4011565466       -0.8184682465        1.8860277969
 O         -0.6727733252       -1.0325119254        2.8774725586
 H          0.5702100830        0.0510861130       -0.0604949747
 C          0.9704669974       -0.6198569900       -0.8040524737
 C          0.6570533201       -1.9707342914       -0.7360084310
 C          1.1458945307       -2.8117005482       -1.7261091590
 C          1.9172280052       -2.2979259600       -2.7557192645
 C          2.2296412104       -0.9517979081       -2.8152639392
 C          1.7416746631       -0.1016814689       -1.8286093081
 N          2.0083652761        1.2745304324       -1.8445295107
 S          2.1039813495        2.1288944502       -0.4137023675
 O          0.7956614462        2.3131335725        0.1629611386
 O          2.8085213386        3.3410558135       -0.7742406623
 C          3.1371680258        1.1328351042        0.6471471200
 C          2.6202813977        0.5138281286        1.7664340505
 C          3.4526815171       -0.2857372971        2.5348007159
 C          4.7806057624       -0.4506313636        2.1747249545
 C          5.2889170502        0.1865405977        1.0524547846
 C          4.4610568748        0.9832832896        0.2796437321
 H          4.8215400144        1.5034488815       -0.5928441211
 H          6.3237831067        0.0616366372        0.7776927220
 H          5.4218096221       -1.0768088536        2.7747856215
 H          3.0478592466       -0.7781100269        3.4049354837
 H          1.5819494235        0.6516888003        2.0274798056
 H          2.6789909391        1.5843892098       -2.5310209932
 H          2.8278450924       -0.5576266777       -3.6221892306
 H          2.2834310232       -2.9595644259       -3.5260229083
 H          0.9068418148       -3.8622684332       -1.7075484725
 C         -0.1767309001       -2.4182836991        0.4418389524
 H          0.4487255559       -2.2946255638        1.3427256217
 C         -0.5738309379       -3.8858904910        0.3966575708
 C         -1.8886299521       -4.3509964328        0.9464555338
 C         -1.6308070024       -4.4077440444       -0.5278307991
 H         -1.4795584716       -5.3761012330       -0.9824258190
 H         -2.1273933933       -3.6938940757       -1.1648722433
 H         -1.9133313208       -5.2748850315        1.5050623923
 H         -2.5700836585       -3.5979612603        1.3161489582
 H          0.2739742167       -4.5388513974        0.5800163073
 O         -2.0524782195       -1.4934899772       -1.6128129630
