  62
        -98.94513855
 C         -1.5340224895       -0.7529167804       -0.5269466375
 C         -2.8309629007       -1.3144866767       -0.5814479174
 C         -3.9396255684       -0.3539450165       -0.6211239854
 C         -3.6791022025        0.9663171978       -0.6257993587
 C         -4.7015048433        2.0684522907       -0.6944418338
 C         -5.3047815852        2.4468662304        0.6651223785
 C         -6.2802424528        1.4250055931        1.2504224379
 H         -7.0397990666        1.1815837752        0.5068049784
 H         -6.7877973071        1.9086816604        2.0874470601
 C         -5.6183339692        0.1347023326        1.7539833187
 H         -6.0174103908       -0.1196330251        2.7385547407
 H         -4.5454389550        0.3001229207        1.8768663721
 C         -5.8313225609       -1.0807365528        0.8514835567
 H         -6.8929627044       -1.3364550022        0.8254412153
 H         -5.2923986115       -1.9278730369        1.2837713810
 C         -5.3385261804       -0.8914632124       -0.5893234380
 H         -6.0138853213       -0.2320907170       -1.1341440088
 H         -5.3308925580       -1.8679647494       -1.0799493741
 H         -5.8377337710        3.3914246013        0.5337811567
 H         -4.4906083797        2.6198933170        1.3725915752
 H         -5.4994538186        1.7861930967       -1.3818192392
 H         -4.1878741693        2.9435605388       -1.0979673976
 O         -2.4153121115        1.4656923600       -0.5877043719
 C         -1.3123907213        0.6248353170       -0.5147526308
 O         -0.2192450409        1.2144048636       -0.4505674283
 O         -3.0514624564       -2.5558521683       -0.5934398114
 C         -0.3297474421       -1.6743862993       -0.4769221725
 C          0.5069532761       -1.3678341379        0.7396446301
 C         -0.1168668786       -1.2526559583        1.9799147482
 C          0.6118476685       -0.9441092881        3.1113233695
 C          1.9776707059       -0.7330776699        3.0312244991
 C          2.6125244310       -0.8634897313        1.8027322140
 C          1.8795288173       -1.1935309049        0.6702062485
 H          2.4012733727       -1.3133326286       -0.2633231403
 N          3.9957545360       -0.6772378407        1.6924214517
 S          4.6905457336       -0.1313540857        0.2776594741
 O          4.7557567916       -1.2012949416       -0.6867837875
 O          5.9673503847        0.4048930630        0.7009010875
 C          3.6583905010        1.1870580862       -0.3351986290
 C          3.2067500870        1.1445804086       -1.6375190468
 C          2.4272464154        2.1859898005       -2.1119667697
 C          2.1116311120        3.2457189067       -1.2783126212
 C          2.5749496783        3.2753541041        0.0269194773
 C          3.3576236295        2.2386904118        0.5058761926
 H          3.7351573546        2.2379769443        1.5157708978
 H          2.3210267099        4.0997797746        0.6738409818
 H          1.4937044917        4.0492501652       -1.6465454717
 H          2.0591647307        2.1623418846       -3.1257037876
 H          3.4685476490        0.2967562564       -2.2514242984
 H          4.4523024507       -0.3085484235        2.5127927607
 H          2.5464974480       -0.4762975449        3.9116005761
 H          0.1125598896       -0.8553610122        4.0645513853
 H         -1.1863492494       -1.4024026738        2.0418487399
 H         -0.7374614432       -2.6912135572       -0.3743945663
 C          0.4454536836       -1.5857107047       -1.7747505459
 C          1.2518716510       -2.7525684562       -2.2581098811
 C         -0.0165994981       -2.3750733483       -2.9612254746
 H          0.0483539838       -1.9228507240       -3.9394576935
 H         -0.8822290216       -3.0078281386       -2.8295863666
 H          2.1955695245       -2.5626401074       -2.7478924823
 H          1.2491876323       -3.6465799615       -1.6528099297
 H          0.8299674836       -0.5877017042       -1.9563346631
