  62
        -98.94057805
 C         -0.4069655274       -1.7386763028       -0.0888751758
 C         -1.5455317559       -1.7749286896        0.7439689047
 C         -2.6317128955       -0.8303740017        0.4239448542
 C         -2.4880261561       -0.0065718040       -0.6296311935
 C         -3.4380130191        1.0467947454       -1.1431496639
 C         -4.9284085667        0.6773316144       -1.1939855991
 C         -5.7732058618        1.4054358711       -0.1469618174
 H         -5.4143601093        2.4334922281       -0.0635485269
 H         -6.8062929713        1.4483162172       -0.4990518840
 C         -5.7857697127        0.7635752724        1.2391628115
 H         -6.3686893109       -0.1594852060        1.2054950241
 H         -6.3007732857        1.4486075882        1.9168650055
 C         -4.4091592356        0.4406820267        1.8238708973
 H         -4.5129434881        0.3776599247        2.9095487268
 H         -3.7046452959        1.2481395827        1.6234677517
 C         -3.8296351942       -0.8940820437        1.3313563985
 H         -3.4939105091       -1.4853909564        2.1892387677
 H         -4.6124609273       -1.4848099733        0.8464724849
 H         -5.0472935116       -0.4002451121       -1.0945757782
 H         -5.3053132843        0.9546905057       -2.1797068274
 H         -3.0819688356        1.2782652672       -2.1493133736
 H         -3.3012511800        1.9522218503       -0.5455464456
 O         -1.3680048132       -0.0063668452       -1.4075437625
 C         -0.2986499146       -0.8472291101       -1.1552154935
 O          0.6617243622       -0.7120460808       -1.9348078967
 O         -1.6524976752       -2.5640065966        1.7241835862
 C          0.7578424068       -2.6622767093        0.2043066632
 C          2.0332431023       -1.8815613393        0.4091015908
 C          3.2817016307       -2.3894962718        0.0678867828
 C          4.4271078584       -1.6446820052        0.2868041319
 C          4.3542383727       -0.3756546284        0.8312900734
 C          3.1105423075        0.1399865675        1.1780996616
 C          1.9685757416       -0.6193602471        0.9835978836
 H          1.0130858655       -0.2077774347        1.2737052691
 N          2.9908575832        1.4269194946        1.7274580510
 S          1.6928118576        2.3975190726        1.3447494191
 O          2.1260138236        3.7268233519        1.7286427059
 O          0.4959876708        1.9288403895        2.0008796466
 C          1.4706596032        2.3640567452       -0.4254163755
 C          0.2073395793        2.6398261382       -0.9056512986
 C          0.0038097680        2.7038586270       -2.2734983652
 C          1.0641697052        2.4847482923       -3.1369248651
 C          2.3272828176        2.2089362592       -2.6406455629
 C          2.5391095423        2.1557914198       -1.2728281202
 H          3.5160924257        1.9389507630       -0.8731365632
 H          3.1489403437        2.0278466905       -3.3147063523
 H          0.9022928779        2.5204939671       -4.2027327970
 H         -0.9815002858        2.9124745803       -2.6586595802
 H         -0.5936823779        2.7823954711       -0.1967103921
 H          3.8482930351        1.9573332926        1.7785788454
 H          5.2462350106        0.2112655705        0.9895194425
 H          5.3893939995       -2.0530436914        0.0185044981
 H          3.3563597660       -3.3705537501       -0.3717938273
 H          0.5060322420       -3.1634251762        1.1517480517
 C          0.8796233869       -3.7125211752       -0.8832054814
 C          1.3189903008       -5.1073860574       -0.5542882924
 C         -0.1102016408       -4.8371893292       -0.9132461361
 H         -0.4785030246       -5.1760107500       -1.8698713092
 H         -0.8504053116       -4.8630213271       -0.1266672417
 H          1.9324304493       -5.6366215589       -1.2679319717
 H          1.5446152447       -5.3323466474        0.4772933956
 H          1.1838495369       -3.2880894915       -1.8334551383
