  62
        -98.93787458
 C          1.9473074842        1.3809037834        0.1021034953
 C          2.2562845300        0.3845212354       -0.8536459266
 C          3.6346314815       -0.1386111354       -0.8332169925
 C          4.5167260071        0.3354127439        0.0619152731
 C          5.9707697810       -0.0257933824        0.2330593492
 C          6.3467214156       -1.5124294072        0.1588294089
 C          5.2757007241       -2.4818825600        0.6798283718
 H          5.7366546544       -3.1705528796        1.3904136722
 H          4.5004572299       -1.9322229232        1.2167735837
 C          4.6331395806       -3.3161975445       -0.4311398965
 H          5.4167058436       -3.6553117530       -1.1123374120
 H          4.1808686644       -4.2055323856        0.0146900625
 C          3.5426777843       -2.6095679212       -1.2353615740
 H          2.6564747369       -2.4690210358       -0.6099674198
 H          3.2522824509       -3.2676590730       -2.0581112174
 C          3.9307981098       -1.2381881701       -1.8125396019
 H          4.9705538200       -1.2248586920       -2.1296169325
 H          3.2983952417       -1.0484951047       -2.6839245835
 H          7.2616340357       -1.6352093791        0.7408712199
 H          6.5924273273       -1.7759489793       -0.8690573604
 H          6.2476164391        0.3729738003        1.2119417469
 H          6.5482741344        0.5263365915       -0.5141418956
 O          4.1799435217        1.2975308347        0.9656157406
 C          2.9075196592        1.8336572115        1.0128473465
 O          2.7537963793        2.7018914684        1.8948721907
 O          1.4425439797       -0.0641727749       -1.7058480063
 C          0.5798659379        2.0363042854        0.2249196062
 C         -0.4029683958        1.1433365099        0.9437271207
 C         -0.9659845841        1.5290383095        2.1543091883
 C         -1.8914298663        0.7208074540        2.7923155514
 C         -2.2742369983       -0.4864133825        2.2360816508
 C         -1.7106509513       -0.8828544679        1.0302993414
 C         -0.7893860468       -0.0687495322        0.3892720322
 H         -0.3527519537       -0.3844077663       -0.5466557803
 N         -2.1087407412       -2.1039471609        0.4453897713
 S         -3.7492099704       -2.2221745401        0.1152097092
 O         -4.4559551295       -2.5423197714        1.3301452332
 O         -3.8666362613       -3.1837139995       -0.9579137467
 C         -4.2014875146       -0.5887484564       -0.4405827804
 C         -4.9318942961        0.2413087661        0.3847715566
 C         -5.2008445533        1.5340707941       -0.0352574122
 C         -4.7323654102        1.9729825816       -1.2635760880
 C         -4.0015042634        1.1256598152       -2.0822101636
 C         -3.7283795280       -0.1671074820       -1.6672856842
 H         -3.1646710532       -0.8530752496       -2.2795846253
 H         -3.6388334036        1.4670413634       -3.0386787264
 H         -4.9380840617        2.9816187186       -1.5858170971
 H         -5.7694213226        2.1955646148        0.5981582966
 H         -5.2757206848       -0.1401927176        1.3320586631
 H         -1.5740654871       -2.3296502225       -0.3819967561
 H         -2.9990278411       -1.1267691768        2.7125471982
 H         -2.3196841562        1.0344041888        3.7320364344
 H         -0.6652268215        2.4660854814        2.5998943332
 H          0.7382948074        2.9270923314        0.8468484452
 C          0.0105899160        2.4791338142       -1.1104114874
 C         -1.0618829101        3.5243614511       -1.1287633624
 C          0.3157120689        3.8544093663       -1.6185575724
 H          0.4715493861        3.9886987471       -2.6784865259
 H          0.9395672791        4.4873293000       -1.0039084866
 H         -1.8568773811        3.4315490406       -1.8517735429
 H         -1.3748283652        3.9354717913       -0.1811911950
 H         -0.0481123771        1.6817496987       -1.8388069847
