  62
        -98.94413875
 C          2.2009361366        0.7768567804       -0.0272613249
 C          2.8925487148        0.0666506821        0.9819600818
 C          3.6888819857       -1.0818657387        0.5296552709
 C          3.6852347225       -1.4105992508       -0.7754923108
 C          4.4922640301       -2.5213948717       -1.3813740810
 C          5.8629752740       -2.0168688178       -1.8540602098
 C          6.6130665255       -1.1935976059       -0.8068953705
 H          7.5770753918       -0.9176432629       -1.2395296820
 H          6.0659922692       -0.2659756239       -0.6236185027
 C          6.8405058080       -1.9184992306        0.5270177315
 H          6.7112828612       -2.9930014341        0.3921045448
 H          7.8723492408       -1.7534191658        0.8440361592
 C          5.9427488057       -1.4404450922        1.6697547753
 H          5.9988344790       -0.3517742258        1.7490965064
 H          6.3298325693       -1.8565359684        2.6037398137
 C          4.4652238928       -1.8403574524        1.5693171578
 H          4.3857902160       -2.9166451648        1.4022678842
 H          3.9914661901       -1.6062449461        2.5275026540
 H          6.4668694448       -2.8790108264       -2.1427294425
 H          5.7155735721       -1.3930493539       -2.7385856176
 H          4.6187253514       -3.3148036189       -0.6472380901
 H          3.9445990989       -2.9156791619       -2.2389536404
 O          2.9722996910       -0.7311765946       -1.7093751142
 C          2.2193323094        0.3825734036       -1.3655208317
 O          1.6238307472        0.9148880045       -2.3197451902
 H         -0.0656050410       -0.1851807565        0.8550857303
 C         -0.6656410353        0.5688665289        0.3590988047
 C         -0.0756872059        1.7779966780        0.0103937940
 C         -0.8621344839        2.7412884838       -0.6070693215
 C         -2.1941939215        2.4860775155       -0.8850269457
 C         -2.7706747380        1.2743548615       -0.5533134377
 C         -1.9976786360        0.3085192905        0.0783290020
 N         -2.5734355387       -0.9301659775        0.4149564438
 S         -3.9918185205       -0.9171021887        1.3159453994
 O         -4.0779444597        0.2612906169        2.1472907801
 O         -4.0161210859       -2.1910141879        2.0014271164
 C         -5.2810575290       -0.8947352705        0.0885940090
 C         -6.2254326830        0.1130103514        0.0991828780
 C         -7.2255614220        0.1036254235       -0.8607443774
 C         -7.2636669026       -0.9081068698       -1.8079308683
 C         -6.3089162278       -1.9142826496       -1.8031889583
 C         -5.3070883797       -1.9113260977       -0.8459186390
 H         -4.5488459774       -2.6755867856       -0.8051077144
 H         -6.3416176049       -2.6994692097       -2.5413154472
 H         -8.0420881777       -0.9130796688       -2.5544658020
 H         -7.9688353832        0.8845812830       -0.8660787450
 H         -6.1524906555        0.8813217204        0.8522971877
 H         -1.9148262037       -1.5870767975        0.8080022490
 H         -3.8052442587        1.0699109888       -0.7752926950
 H         -2.7909894331        3.2419314869       -1.3721942303
 H         -0.4317550982        3.6919380212       -0.8752829993
 C          1.3772632110        1.9910684758        0.3593522197
 H          1.4533605492        2.0586906024        1.4555688255
 C          1.9710218415        3.2454204500       -0.2468886847
 C          1.8238462340        4.5650694107        0.4480526988
 C          3.1549861583        3.8779450748        0.4190726240
 H          3.9372717950        4.2894757244       -0.2008784664
 H          3.5152450402        3.4194518652        1.3287496145
 H          1.6945155695        5.4528247318       -0.1523734771
 H          1.2826070318        4.5805550443        1.3820853059
 H          1.9559028121        3.2297666093       -1.3308710434
 O          2.8405190332        0.3745666110        2.2045947114
