  62
        -98.94482779
 C         -2.4617563392       -1.0951641893       -0.0491442890
 C         -3.1111927793       -0.2849708990        0.9203560107
 C         -3.6098922694        1.0128172408        0.4579506902
 C         -3.4552733793        1.3624418803       -0.8314655699
 C         -3.8993223594        2.6552178001       -1.4592474204
 C         -2.8971143995        3.8033615202       -1.2746983108
 C         -2.8296291196        4.3868004407        0.1374456590
 H         -2.2647555897        5.3186848607        0.0703754987
 H         -3.8360022097        4.6381394208        0.4740509989
 C         -2.1515104496        3.4745638012        1.1695121694
 H         -1.5650078095        2.7101659010        0.6524903197
 H         -1.4483438997        4.0610905014        1.7653639092
 C         -3.1129609596        2.7943344014        2.1448084396
 H         -3.5977287597        3.5502122516        2.7666003593
 H         -2.5293801496        2.1412541017        2.7984456099
 C         -4.1993243695        1.9437843911        1.4739544298
 H         -4.6815036495        1.3351037913        2.2426220900
 H         -4.9490769195        2.5853712809        1.0120089696
 H         -1.9048848795        3.4524149402       -1.5708164906
 H         -3.1857239696        4.6021681699       -1.9619982911
 H         -4.0090019594        2.4617879897       -2.5285018403
 H         -4.8693706495        2.9472530701       -1.0561670306
 O         -2.8686895992        0.5424455200       -1.7409983796
 C         -2.3240896591       -0.6796479098       -1.3734110791
 O         -1.7763518190       -1.2775651701       -2.3235289489
 H          0.1249111910       -1.9544872796       -1.3413096685
 C          0.4893678309       -1.9144782392       -0.3253308585
 C         -0.3875611991       -2.1464916489        0.7254462015
 C          0.0959935808       -2.0525926483        2.0254206015
 C          1.4203361308       -1.7290844581        2.2645031115
 C          2.2839474008       -1.4745435685        1.2135404414
 C          1.8067423609       -1.5597920590       -0.0873345786
 N          2.6680775809       -1.2298613993       -1.1643212887
 S          2.9122337208        0.4352938807       -1.2996132193
 O          1.7473033207        1.1788431107       -0.8711169296
 O          3.3526040008        0.6582840202       -2.6597844493
 C          4.2684752507        0.7346614512       -0.1865653593
 C          4.0781333006        1.5168282716        0.9352641704
 C          5.1465442905        1.7272868920        1.7933348104
 C          6.3781569706        1.1542126120        1.5154441007
 C          6.5529065207        0.3720865816        0.3831046710
 C          5.4894854707        0.1584336112       -0.4791789590
 H          5.5796096808       -0.4374830091       -1.3719479588
 H          7.5122414007       -0.0713492984        0.1707191412
 H          7.2069095405        1.3183517423        2.1858740706
 H          5.0121852904        2.3347064423        2.6738951502
 H          3.1002304105        1.9355443816        1.1119410402
 H          2.3089686210       -1.5631433596       -2.0499050086
 H          3.3127186508       -1.2062015683        1.3908054214
 H          1.7807319207       -1.6615706677        3.2795174815
 H         -0.5835767492       -2.2100482481        2.8503567915
 C         -1.8523101791       -2.3947977491        0.4558204115
 H         -2.3445611991       -2.5893818888        1.4179935816
 C         -2.0814425989       -3.5853251194       -0.4508658980
 C         -1.9315962289       -4.9641048492        0.1169497025
 C         -3.2909918589       -4.4435359495       -0.2386693778
 H         -3.7910748288       -4.8487164198       -1.1054269877
 H         -3.9608149889       -4.1733890692        0.5645528221
 H         -1.4957785988       -5.7314564594       -0.5040500372
 H         -1.6796655889       -5.0476725188        1.1632270925
 H         -1.7656132989       -3.4226923998       -1.4728711181
 O         -3.2659393593       -0.6357864486        2.1198683408
