  62
        -98.94665786
 C         -1.9982944310       -1.4431684102       -0.0943003504
 C         -1.7399266608       -0.1759887304       -0.6679359109
 C         -2.9124218008        0.6855050096       -0.8611164714
 C         -4.1377802808        0.2285372398       -0.5452315613
 C         -5.4316442208        0.9777529998       -0.7147341018
 C         -5.7604943409        1.9278247303        0.4452211277
 C         -4.8997306808        3.1898534502        0.5173285573
 H         -4.9091306007        3.6902718498       -0.4514014229
 H         -5.3760431209        3.8609184306        1.2348518270
 C         -3.4505930509        2.9424391703        0.9593841576
 H         -3.1705760009        3.6769785406        1.7176735874
 H         -3.3760981510        1.9576251505        1.4262020080
 C         -2.4178686407        3.0351203198       -0.1641578723
 H         -2.3805802106        4.0587485697       -0.5435442627
 H         -1.4387601608        2.7904588499        0.2561216479
 C         -2.6799633406        2.0861736593       -1.3411138419
 H         -3.5293855005        2.4367764791       -1.9267912622
 H         -1.7942627305        2.0741877590       -1.9812943618
 H         -5.6761243910        1.3749901606        1.3837499580
 H         -6.8039428208        2.2308117403        0.3315434675
 H         -5.4108515706        1.5370764694       -1.6505037120
 H         -6.2206531108        0.2251885198       -0.7772002216
 O         -4.3478009410       -1.0155445800       -0.0366821208
 C         -3.2868675611       -1.8666854200        0.2296903696
 O         -3.6151868312       -2.9542259997        0.7458765001
 H          1.8863417190       -2.0910534104       -0.2175440196
 C          1.5292943589       -1.6357410800        0.6903834402
 C          0.1889168589       -1.6937153698        1.0360872500
 C         -0.2202066413       -1.0909085893        2.2239034897
 C          0.6851981387       -0.4328964390        3.0324805896
 C          2.0192954887       -0.3551416293        2.6705026097
 C          2.4402684888       -0.9604171698        1.4934824200
 N          3.7950717389       -0.9254791600        1.1152699302
 S          4.2473734691       -0.3571948407       -0.3932658200
 O          3.6293628792       -1.1488249810       -1.4242618498
 O          5.6941373891       -0.3654529307       -0.3623765998
 C          3.6719611892        1.3310043094       -0.4482782308
 C          4.5854116092        2.3418535394       -0.2153509111
 C          4.1491468793        3.6563416294       -0.2112749417
 C          2.8089911594        3.9373564794       -0.4318263120
 C          1.9061786193        2.9108560794       -0.6591091617
 C          2.3342929293        1.5918106993       -0.6679318511
 H          1.6370689992        0.7877617893       -0.8427577008
 H          0.8617001194        3.1174631994       -0.8314827019
 H          2.4657549994        4.9600031594       -0.4279880424
 H          4.8520371193        4.4549817295       -0.0363142219
 H          5.6178239992        2.0762535994       -0.0541730908
 H          4.4018619288       -0.5221070497        1.8155357801
 H          2.7283179387        0.1652076510        3.2965933196
 H          0.3505666786        0.0304000414        3.9484039693
 H         -1.2648770013       -1.1445581791        2.5007244196
 C         -0.8445748111       -2.3896935601        0.1840940702
 H         -1.2648310112       -3.2241571299        0.7645653005
 C         -0.2911545609       -2.9344722107       -1.1160188295
 C          0.3737001090       -4.2766436707       -1.1472107789
 C         -0.9775875309       -4.0944686509       -1.7691143391
 H         -1.0574829508       -4.1073539114       -2.8458375991
 H         -1.8362989510       -4.5107277007       -1.2622121591
 H          1.2261700991       -4.4121771611       -1.7960253287
 H          0.4345517088       -4.8261529404       -0.2198356586
 H          0.1015659692       -2.1593963710       -1.7650975398
 O         -0.5927999308        0.2193298894       -0.9994033109
