  62
        -98.94478239
 C          1.2407302485        1.5138241115        0.3667160016
 C          1.7743211188        0.5610514419        1.2709806219
 C          2.8918638400       -0.2493337669        0.7770499826
 C          3.3224656208       -0.0878446263       -0.4866859371
 C          4.4538656620       -0.8341260551       -1.1391723763
 C          4.0466117839       -2.2042609154       -1.6981052568
 C          3.8134437542       -3.2925509458       -0.6493820971
 H          3.7694332856       -4.2441905157       -1.1829768073
 H          4.6688180137       -3.3359457850        0.0262669635
 C          2.5206965034       -3.1286895372        0.1622855819
 H          2.0141942743       -4.0948049577        0.2343955014
 H          1.8339868431       -2.4625617178       -0.3673489185
 C          2.7272893118       -2.6211147672        1.5899295722
 H          1.7448468213       -2.4998926083        2.0536393614
 H          3.2784296221       -3.3690392267        2.1651823825
 C          3.4724513204       -1.2841891064        1.6933601929
 H          3.3703201692       -0.9156806267        2.7173218929
 H          4.5309487207       -1.4287353453        1.4774309537
 H          4.8466966847       -2.5363957045       -2.3641331462
 H          3.1411927742       -2.0830431062       -2.2983212375
 H          4.8000762620       -0.2125818946       -1.9678812860
 H          5.2731729516       -0.9568482243       -0.4299114757
 O          2.7659063505        0.8133528532       -1.3367296574
 C          1.6948133894        1.6102683421       -0.9498978081
 O          1.2627204993        2.3433112018       -1.8591025883
 H         -0.6882352495        0.0990946496       -0.3847746500
 C         -1.3499084901        0.9084328189       -0.6487528304
 C         -1.0974231218        2.1786349791       -0.1481844901
 C         -1.9298155926        3.2184217083       -0.5409377706
 C         -2.9774051317        2.9803954973       -1.4151125014
 C         -3.2294928700        1.7108885672       -1.9017664217
 C         -2.3976376592        0.6639802680       -1.5189089813
 N         -2.5966725875       -0.6369261022       -1.9971572416
 S         -2.0499704768       -1.9602546017       -1.1447873013
 O         -0.6149656066       -2.0648995702       -1.2359561603
 O         -2.7982379553       -3.0687945524       -1.6993880920
 C         -2.5611608584       -1.6752689725        0.5410069783
 C         -1.6236585193       -1.5390258216        1.5434895490
 C         -2.0515538305       -1.2658774023        2.8328696488
 C         -3.4061736608       -1.1402180237        3.0976700178
 C         -4.3388675099       -1.2948371645        2.0828547270
 C         -3.9149710187       -1.5616578139        0.7916004673
 H         -4.6112964679       -1.6920184145       -0.0206242232
 H         -5.3920099302       -1.2013581656        2.2933676263
 H         -3.7348694018       -0.9212006442        4.1012973175
 H         -1.3172766812       -1.1371297716        3.6123599493
 H         -0.5746217290       -1.6316838205        1.3071963198
 H         -3.4581727870       -0.8034483830       -2.4932544122
 H         -4.0464884893        1.5310643064       -2.5832570124
 H         -3.6113826623        3.7989365267       -1.7204776618
 H         -1.7505844539        4.2181953384       -0.1814023003
 C          0.0438461573        2.3239293702        0.8294895608
 H         -0.2671772229        1.8226118397        1.7632397005
 C          0.3490610355        3.7674239504        1.2030889312
 C          1.7516089549        4.2272461918        1.4635424523
 C          1.0156012053        4.7162542012        0.2540749518
 H          0.6834482642        5.7441079909        0.2384589717
 H          1.3022580264        4.3310764317       -0.7115032680
 H          2.5491723457        3.5125338727        1.3185552028
 H          1.9229254436        4.9141839919        2.2789422526
 H         -0.4130735654        4.1890166396        1.8510992907
 O          1.3307333081        0.3914846313        2.4383579415
