  62
        -98.94571059
 C         -2.3491795308       -0.9212482678        0.2495878003
 C         -2.0882442904       -0.0307946880       -0.8200754798
 C         -2.5357995892        1.3555418324       -0.6203874796
 C         -3.1143577086        1.7012627728        0.5442395806
 C         -3.5494946174        3.0911991931        0.9063577808
 C         -2.4207249966        3.8624970622        1.6054203605
 C         -1.0821698069        3.8047905012        0.8683403301
 H         -0.3737230463        4.4119377106        1.4361624199
 H         -0.7090904077        2.7777810109        0.8823839499
 C         -1.1389560769        4.3006861013       -0.5831715099
 H         -0.2894636865        4.9623984406       -0.7628971501
 H         -2.0431634265        4.8906583620       -0.7368045596
 C         -1.0736957081        3.1889618413       -1.6315837099
 H         -0.2248483085        2.5338685106       -1.4217734202
 H         -0.9012459680        3.6510122512       -2.6067780000
 C         -2.3293425888        2.3180425123       -1.7561695896
 H         -3.2089049483        2.9522464930       -1.8849603193
 H         -2.2149631395        1.7006689322       -2.6517626497
 H         -2.2817459167        3.4426700121        2.6046265404
 H         -2.7321624558        4.9027982225        1.7161255106
 H         -4.4019186673        3.0196602638        1.5840539110
 H         -3.8584249573        3.6162273334        0.0046168809
 O         -3.3214724190        0.8229809829        1.5597090006
 C         -2.9494323301       -0.5060991674        1.4374213704
 O         -3.1926686604       -1.2039986672        2.4439994905
 O         -1.5142499809       -0.3723960784       -1.8857021500
 C         -1.9499588419       -2.3811696081        0.1313330501
 C         -0.4565776921       -2.4979680193       -0.0595387203
 C          0.1319181770       -3.2903563297       -1.0356987105
 C          1.5106500169       -3.3608050607       -1.1419458309
 C          2.3290484177       -2.6547799914       -0.2802073411
 C          1.7511389686       -1.8562946110        0.6997569991
 C          0.3695440987       -1.7853138799        0.8014996895
 H         -0.0817105006       -1.1693760096        1.5704327096
 N          2.5592127294       -1.1522689217        1.6079442889
 S          3.9182385900       -0.3171000427        1.1121948385
 O          4.9010505691       -1.2513047035        0.6241900482
 O          4.3000327609        0.4732273970        2.2599601184
 C          3.3897614604        0.7562435678       -0.2088342413
 C          2.9035301915        2.0060400981        0.1212259989
 C          2.4784868119        2.8496316685       -0.8913805610
 C          2.5331091412        2.4255641085       -2.2107127910
 C          3.0164445501        1.1654021481       -2.5250793712
 C          3.4530246897        0.3204334378       -1.5169281213
 H          3.8492650889       -0.6589913725       -1.7264151715
 H          3.0551792895        0.8374865481       -3.5512660512
 H          2.1965384314        3.0820061488       -2.9974852309
 H          2.1039617927        3.8310544588       -0.6490148408
 H          2.8850472420        2.3007352381        1.1583474189
 H          2.0393197101       -0.6129869613        2.2838686390
 H          3.4032124677       -2.7170222323       -0.3422539814
 H          1.9553907962       -3.9812124311       -1.9051657411
 H         -0.4871469436       -3.8523522492       -1.7149870604
 H         -2.2015569620       -2.8439058379        1.0972529401
 C         -2.7582604728       -3.0575151974       -0.9561499197
 C         -3.0582276539       -4.5230089472       -0.8723621097
 C         -4.1474066930       -3.5205422564       -0.6397817693
 H         -4.9140445632       -3.4048417957       -1.3911406491
 H         -4.5017971126       -3.3719631161        0.3702495808
 H         -3.0809774646       -5.0988623171       -1.7852425997
 H         -2.6780067241       -5.0638510475       -0.0188633198
 H         -2.5876461227       -2.6227374875       -1.9340034797
