  62
        -98.94666497
 C         -1.9999570555       -1.4434132389       -0.0846207039
 C         -1.7358160201       -0.1817500747       -0.6675876171
 C         -2.9038087064        0.6851556639       -0.8637390192
 C         -4.1309962166        0.2373076705       -0.5420387622
 C         -5.4211196146        0.9922247795       -0.7148097793
 C         -5.7426271229        1.9530629335        0.4382832971
 C         -4.8748011536        3.2108229113        0.4991539250
 H         -4.8827801656        3.7035908400       -0.4735032978
 H         -5.3459888261        3.8903403867        1.2121282608
 C         -3.4264735306        2.9582358230        0.9406565119
 H         -3.3569361374        1.9764774272        1.4147138806
 H         -3.1411779242        3.6968190107        1.6930222866
 C         -2.3948187755        3.0366372085       -0.1849422611
 H         -2.3515757247        4.0572347423       -0.5718259923
 H         -1.4168627959        2.7886620800        0.2360489951
 C         -2.6644775695        2.0808679946       -1.3546081116
 H         -3.5129386186        2.4319501342       -1.9414240144
 H         -1.7798753571        2.0592159634       -1.9961019514
 H         -5.6595350463        1.4068183036        1.3807653495
 H         -6.7845506548        2.2609978564        0.3241129803
 H         -5.3990556542        1.5443031890       -1.6548474454
 H         -6.2142891286        0.2434665150       -0.7700842116
 O         -4.3467557531       -1.0016780833       -0.0235450773
 C         -3.2900509837       -1.8568591024        0.2463696676
 O         -3.6231286413       -2.9384416763        0.7719310265
 H          1.8772807757       -2.1024474408       -0.2291746603
 C          1.5284124133       -1.6469496093        0.6818240008
 C          0.1906204858       -1.7017967933        1.0379645761
 C         -0.2079780531       -1.0974897280        2.2285728820
 C          0.7054022443       -0.4429428711        3.0310010706
 C          2.0370166701       -0.3692380160        2.6591651247
 C          2.4471120019       -0.9742634203        1.4782048660
 N          3.7988673464       -0.9409404633        1.0883651843
 S          4.2350353993       -0.3556222711       -0.4187232738
 O          3.6029119007       -1.1332686572       -1.4516646195
 O          5.6821008499       -0.3676214124       -0.4052661202
 C          3.6629512339        1.3344278448       -0.4449291584
 C          2.3263284384        1.6017387532       -0.6628560691
 C          1.9010246772        2.9213898508       -0.6314112646
 C          2.8052131146        3.9416680363       -0.3826411506
 C          4.1440672446        3.6539312586       -0.1628749540
 C          4.5777622090        2.3388798224       -0.1904542546
 H          5.6092202429        2.0682252944       -0.0314824018
 H          4.8476700415        4.4477918923        0.0300037692
 H          2.4638434954        4.9647021977       -0.3606938027
 H          0.8576291655        3.1339283320       -0.8031404392
 H          1.6284965325        0.8016641934       -0.8530445307
 H          4.4124229081       -0.5436402403        1.7862010709
 H          2.7524732042        0.1480202501        3.2805251618
 H          0.3790121859        0.0208052479        3.9496700060
 H         -1.2507377315       -1.1480100770        2.5129946816
 C         -0.8513802310       -2.3958734680        0.1949573685
 H         -1.2748513967       -3.2236254382        0.7826425189
 C         -0.3080295707       -2.9531633513       -1.1040610172
 C          0.3467214628       -4.3004049676       -1.1289685691
 C         -1.0062984622       -4.1126248194       -1.7454627129
 H         -1.0917506600       -4.1324076573       -2.8216584247
 H         -1.8656227812       -4.5187876378       -1.2314242266
 H          0.4083010366       -4.8436711308       -0.1979700469
 H          1.1947305736       -4.4469619816       -1.7812119098
 H          0.0870730698       -2.1854993444       -1.7604788315
 O         -0.5874570921        0.2044053131       -1.0055239322
