  62
        -98.93857520
 C         -2.4247901498       -1.2397146921       -0.0161187017
 C         -3.1387561973       -0.4235062363        0.8909793735
 C         -3.8329499301        0.7421718932        0.3197330041
 C         -3.7432489799        0.9796821042       -1.0003499166
 C         -4.3962145882        2.0768544256       -1.8037489643
 C         -4.4009435235        3.4895202135       -1.2047046090
 C         -3.1665994605        3.8405300346       -0.3610295490
 H         -2.3884942413        3.0868897109       -0.5008519198
 H         -2.7578213958        4.7918166061       -0.7072884892
 C         -3.4830611021        3.9815005202        1.1300042969
 H         -4.4136571282        4.5427050528        1.2380867022
 H         -2.6904575987        4.5676251522        1.6018295178
 C         -3.5983233307        2.6693399288        1.9047062006
 H         -2.6112006331        2.2067007618        1.9946861341
 H         -3.9331617700        2.9052702985        2.9176375807
 C         -4.5506701743        1.6234723923        1.3016165016
 H         -4.8821427502        0.9664781985        2.1102618667
 H         -5.4233073858        2.0952229903        0.8572153843
 H         -4.4787321305        4.1857319435       -2.0414006355
 H         -5.2951160409        3.6264297582       -0.5983413938
 H         -5.4260550995        1.7749729163       -2.0157162278
 H         -3.8608216752        2.0858109910       -2.7562996468
 O         -3.0248754846        0.1773116567       -1.8364356448
 C         -2.3390128203       -0.9351408991       -1.3738547470
 O         -1.7119258419       -1.5536845399       -2.2538365492
 O         -3.1965595065       -0.6583593842        2.1286968254
 C         -1.6687721406       -2.4446850828        0.5158626056
 C         -0.1897138062       -2.2315552549        0.3047812783
 C          0.6412120457       -3.1408314723       -0.3346145647
 C          1.9819378241       -2.8502156885       -0.5236839705
 C          2.5227853580       -1.6592326761       -0.0760978333
 C          1.7018474913       -0.7458851677        0.5731659630
 C          0.3618795032       -1.0403585693        0.7623695643
 H         -0.2784561266       -0.3242478122        1.2640507684
 N          2.2442349412        0.4671257752        1.0417458136
 S          3.0128899422        1.4433674985       -0.0922465460
 O          2.9230992240        2.7848687233        0.4434531829
 O          2.4746265792        1.2431792869       -1.4182421485
 C          4.7083256612        0.9050075781       -0.0270227229
 C          5.3388741218        0.4741213726       -1.1775822413
 C          6.6610849214        0.0638226529       -1.1027677050
 C          7.3246772247        0.0920342289        0.1142769829
 C          6.6772160608        0.5298420944        1.2602757101
 C          5.3562778511        0.9427802071        1.1923125726
 H          4.8172124495        1.2932602801        2.0565443416
 H          7.1966229508        0.5501925248        2.2047404190
 H          8.3526843097       -0.2294221808        0.1698065294
 H          7.1656758211       -0.2767089595       -1.9926441097
 H          4.7791638002        0.4629762048       -2.0993811635
 H          1.5837403222        1.0172658926        1.5729454038
 H          3.5642767932       -1.4276214758       -0.2286464970
 H          2.6145932111       -3.5625578631       -1.0307749600
 H          0.2372762118       -4.0710948655       -0.6981625552
 H         -1.8612083149       -2.4541357461        1.5990950614
 C         -2.1986402532       -3.7279598552       -0.0853263261
 C         -2.0538595611       -5.0207658455        0.6589480545
 C         -3.4000384452       -4.3750674152        0.5336919142
 H         -4.1334302492       -4.8276221072       -0.1165706877
 H         -3.8250602397       -3.9005884962        1.4062117698
 H         -1.8647366790       -5.9216605219        0.0952870993
 H         -1.5652436611       -4.9906138751        1.6209495120
 H         -2.1233005717       -3.7446314428       -1.1665770662
