  62
        -98.93580646
 C         -1.0207133982       -1.4208919645        0.9117113212
 C         -1.8348455067       -1.4847650249       -0.2460205397
 C         -2.8730961686       -0.4499816955       -0.3462936816
 C         -3.0033205385        0.4713586112        0.6245153089
 C         -4.0377359430        1.5634744890        0.6725661368
 C         -3.6641189659        2.8196900838       -0.1255931987
 C         -3.7116578487        2.6694130764       -1.6462878124
 H         -4.6793405365        2.2638231340       -1.9430511275
 H         -3.6374778220        3.6729097130       -2.0698399549
 C         -2.5864793446        1.8021713294       -2.2286845585
 H         -2.1500040683        2.3029476418       -3.0955881742
 H         -1.7900102783        1.6898356493       -1.4889352233
 C         -3.0352296891        0.4144717976       -2.6869500090
 H         -3.7289146727        0.5107064420       -3.5253726124
 H         -2.1564411157       -0.1335438060       -3.0368245609
 C         -3.7077789847       -0.4220020876       -1.5907418094
 H         -4.7032757347       -0.0338636865       -1.3766206812
 H         -3.8013275075       -1.4491202432       -1.9516279949
 H         -2.6621847941        3.1301338981        0.1727414032
 H         -4.3636077999        3.6077349356        0.1625401806
 H         -4.9931448295        1.1746149650        0.3186680767
 H         -4.1450199305        1.8429342847        1.7227856126
 O         -2.1994205913        0.4965734492        1.7219612695
 C         -1.1812194192       -0.4291223798        1.8793818904
 O         -0.4988756407       -0.2703615966        2.9127280100
 H          1.4577694472       -0.2960790047        0.4765276823
 C          1.6200134222       -1.0541926108       -0.2765873723
 C          1.0079059895       -2.2970376593       -0.1207830942
 C          1.2176321774       -3.2483874448       -1.1092977273
 C          2.0183622928       -2.9597055046       -2.2031112050
 C          2.6296544505       -1.7291764491       -2.3418739779
 C          2.4208892660       -0.7610146405       -1.3651419641
 N          2.9840220247        0.5174511943       -1.4818424389
 S          3.4553787649        1.3699165913       -0.1245701554
 O          4.3755451728        2.3650589859       -0.6345322624
 O          3.9781017838        0.4955121879        0.8994373341
 C          1.9856981581        2.1990963433        0.4404047286
 C          1.2661059990        2.9516233919       -0.4668427761
 C          0.1588332919        3.6549805581       -0.0220017984
 C         -0.2067269667        3.5956552019        1.3151867549
 C          0.5205790247        2.8291617191        2.2113451171
 C          1.6303705064        2.1256294844        1.7719603147
 H          2.2144108256        1.5114140000        2.4394472551
 H          0.2251481296        2.7624346099        3.2459537855
 H         -1.0628691168        4.1506428534        1.6668942354
 H         -0.4138065167        4.2483416319       -0.7174188133
 H          1.5836478509        2.9777542667       -1.4960104108
 H          3.6208823545        0.6412160337       -2.2548673413
 H          3.2502865179       -1.5112915236       -3.1976111154
 H          2.1643187471       -3.7129955207       -2.9627167519
 H          0.7448396358       -4.2120687774       -1.0631130867
 C          0.1321982072       -2.4000697988        1.1059560693
 H          0.7239794839       -1.9819379487        1.9375241233
 C         -0.3933672207       -3.7308419736        1.6201795025
 C         -1.0299569626       -4.8025204649        0.7915872442
 C          0.2950164428       -5.0517036336        1.4500172401
 H          0.3185464843       -5.7181754725        2.2998242660
 H          1.1861985646       -5.0913020303        0.8451819817
 H         -1.9006473492       -5.2953677982        1.2007391633
 H         -1.0895983390       -4.6518115813       -0.2734519486
 H         -0.8541049564       -3.5658025499        2.5926137537
 O         -1.7131317511       -2.3492143942       -1.1488612108
