  62
        -98.94355738
 C         -0.9604520432       -0.9425922468        0.9326771940
 C         -1.3373456815       -0.8150179561       -0.4281952790
 C         -2.0197558879        0.4373943221       -0.7837682457
 C         -2.2117388216        1.3891263363        0.1459211133
 C         -2.8702864080        2.7248748974       -0.0725309752
 C         -4.4035622436        2.6824293104       -0.0140205744
 C         -5.0853670337        2.0287198574       -1.2166873244
 H         -6.1489099128        2.2662649312       -1.1496870728
 H         -4.7084387667        2.4789959335       -2.1356225718
 C         -4.9249595770        0.5035581666       -1.2863013018
 H         -5.8903589585        0.0454762530       -1.5124381251
 H         -4.6115414107        0.1250190845       -0.3107341041
 C         -3.9344781872        0.0178883139       -2.3451033559
 H         -3.8693847417       -1.0713626061       -2.2822618048
 H         -4.3041889672        0.2753632408       -3.3401884863
 C         -2.5183663382        0.5866350033       -2.1883119899
 H         -1.8394142186        0.0277111293       -2.8379324390
 H         -2.4956682165        1.6340229119       -2.4908845273
 H         -4.7035633705        2.1648415128        0.8999705507
 H         -4.7546415216        3.7144109672        0.0574514535
 H         -2.5509380842        3.1379407853       -1.0303750619
 H         -2.5153614054        3.3825814026        0.7239451666
 O         -1.7928475109        1.2485853739        1.4322483354
 C         -1.1529951565        0.0920047578        1.8504603673
 O         -0.7999702748        0.1105888009        3.0463820426
 O         -1.1272595477       -1.6910647748       -1.3052540484
 C         -0.1978889506       -2.1564954428        1.4372918891
 C          0.9450082675       -2.4462907905        0.4942864149
 C          1.2319628592       -3.6989673593       -0.0301883750
 C          2.2978712075       -3.8632145567       -0.8985540873
 C          3.0820231038       -2.7885330276       -1.2753546865
 C          2.8032007021       -1.5302514557       -0.7540370289
 C          1.7615253773       -1.3779717516        0.1435156974
 H          1.5515279179       -0.3998346934        0.5521164530
 N          3.5678914192       -0.4035549352       -1.1013438163
 S          2.7715409829        1.0371654045       -1.4198360177
 O          1.4882686414        0.8228464863       -2.0446972614
 O          3.7289058306        1.8078458274       -2.1878192797
 C          2.5660660795        1.8087830339        0.1704002437
 C          3.6595982228        1.9215257956        1.0055759289
 C          3.4975466614        2.5377005925        2.2360937498
 C          2.2547461276        3.0290693534        2.6066530551
 C          1.1683995762        2.9144548475        1.7532386361
 C          1.3245571955        2.3003945452        0.5212961284
 H          0.5024523207        2.1729674934       -0.1675560494
 H          0.1980359377        3.2822124866        2.0468347692
 H          2.1267965062        3.5014588654        3.5677234813
 H          4.3379666504        2.6295470833        2.9050796498
 H          4.6077142296        1.5251657435        0.6825746396
 H          4.2922187123       -0.5792702526       -1.7832743216
 H          3.8960183401       -2.9162591420       -1.9728903367
 H          2.5092253780       -4.8413085198       -1.3038234033
 H          0.6103066584       -4.5429284185        0.2196955807
 H          0.2397780520       -1.8317116659        2.3963823010
 C         -1.0609613459       -3.3706392676        1.7474501526
 C         -2.5289714539       -3.2293959029        2.0163488839
 C         -2.0583867598       -3.9157864742        0.7712853412
 H         -2.1758606028       -4.9876999029        0.7034817475
 H         -2.1602414660       -3.4031469650       -0.1717375432
 H         -2.9660711797       -3.8260362706        2.8030710782
 H         -2.9616761486       -2.2435433549        1.9239538903
 H         -0.5337849045       -4.0966755830        2.3587575294
