  62
        -98.94005263
 C         -1.0304507261       -1.6009037914        0.0965233902
 C         -1.5456187935       -0.6116975039        0.9637103383
 C         -2.7910696637        0.0569535683        0.5481167945
 C         -3.3362486025       -0.2646372844       -0.6387487123
 C         -4.5878064031        0.2810126013       -1.2780305749
 C         -4.7516974686        1.8089569681       -1.2512627972
 C         -5.8737485569        2.2820023783       -0.3257044693
 H         -6.2090109197        3.2666726181       -0.6590421862
 H         -6.7188765388        1.5978592381       -0.4267811777
 C         -5.4909284043        2.3992039478        1.1484085122
 H         -4.8230070769        3.2535364104        1.2795896098
 H         -6.4036830419        2.6101433414        1.7106596054
 C         -4.8175232509        1.1648421576        1.7520418204
 H         -5.2932345698        0.2539684154        1.3910663349
 H         -4.9710175576        1.1985014054        2.8327890872
 C         -3.3037521048        1.1022247159        1.5011706445
 H         -2.9361687072        2.0789472473        1.1693116726
 H         -2.7855181279        0.8949159333        2.4430388024
 H         -4.9880862995        2.1379457959       -2.2646671368
 H         -3.8068684676        2.2773242610       -0.9758448956
 H         -5.4547968369       -0.1936567662       -0.8123118607
 H         -4.5553465952       -0.0710383767       -2.3115384292
 O         -2.7895028892       -1.2074493656       -1.4588355118
 C         -1.6248091063       -1.8812444611       -1.1322601277
 O         -1.2346863034       -2.6841866371       -2.0011378216
 O         -0.9839939739       -0.2947697211        2.0486522763
 C          0.2660767980       -2.2970674418        0.4638679244
 C          1.3691347190       -1.8813880232       -0.4801274834
 C          2.3511067042       -2.7474270980       -0.9447114321
 C          3.3508396390       -2.2841536678       -1.7831439239
 C          3.4127229500       -0.9525812651       -2.1526005002
 C          2.4376250697       -0.0772400092       -1.6881933046
 C          1.4265752232       -0.5501577756       -0.8685570619
 H          0.6593220156        0.1341390803       -0.5420089336
 N          2.4546007971        1.2846557393       -2.0250328202
 S          1.9779039349        2.4137177099       -0.8851047492
 O          0.5421843426        2.4256870978       -0.7538769816
 O          2.5755028049        3.6506414043       -1.3432857859
 C          2.7687006678        1.8908099812        0.6264390536
 C          2.0469704813        1.3210507269        1.6547246679
 C          2.7255670726        0.8801134343        2.7810380807
 C          4.1020689992        1.0150672491        2.8615266979
 C          4.8122274067        1.5989646238        1.8229546316
 C          4.1416295593        2.0381412172        0.6942224048
 H          4.6550503382        2.5077699065       -0.1290909809
 H          5.8825735364        1.7090065148        1.8890858132
 H          4.6226149684        0.6657477190        3.7392416237
 H          2.1640295322        0.4281261101        3.5832331844
 H          0.9757662005        1.2171270392        1.5763334382
 H          3.2681040482        1.5879940009       -2.5395358711
 H          4.1980105675       -0.5934742129       -2.7997406050
 H          4.1008695184       -2.9698339823       -2.1467916780
 H          2.3291656508       -3.7858067130       -0.6576339492
 H          0.5275413878       -1.9133288217        1.4623928173
 C          0.0770700066       -3.7963500769        0.5539520067
 C          0.8973283222       -4.6042312856        1.5137938103
 C         -0.5577121896       -4.3712075988        1.7838752386
 H         -1.2454821556       -5.1957344340        1.6714492127
 H         -0.8297734202       -3.6813613846        2.5695169727
 H          1.2088073594       -5.5947464731        1.2182675359
 H          1.6148969947       -4.0779523238        2.1248279235
 H         -0.1865885922       -4.2402544765       -0.3990298107
