  62
        -98.93432795
 C         -2.2506222723       -1.0661294398        0.4365944530
 C         -2.3478411511       -0.0281703573       -0.5203452819
 C         -3.2854621722        1.0692181554       -0.2063711168
 C         -3.9537748328        1.0621447799        0.9609663167
 C         -4.9355403832        2.0501856075        1.5558389636
 C         -5.5851721737        3.1251843037        0.6880595705
 C         -6.5464487470        2.5960404514       -0.3756842811
 H         -7.4280227765        2.1873819654        0.1247353747
 H         -6.8732743279        3.4388301537       -0.9886629847
 C         -5.9876166095        1.5063487518       -1.2873862999
 H         -6.7732737766        1.2275747842       -1.9948284412
 H         -5.7579102381        0.6166373655       -0.6973342221
 C         -4.7524920929        1.8993275384       -2.0957617070
 H         -4.5624512735        1.0984367506       -2.8153319220
 H         -4.9569691968        2.8119266181       -2.6587463057
 C         -3.4637808964        2.1037459799       -1.2799671821
 H         -2.6122823702        1.9907271023       -1.9574381510
 H         -3.4154682761        3.1053493792       -0.8595515794
 H         -4.8247598846        3.7541691491        0.2346783054
 H         -6.1609642939        3.7629266583        1.3644037770
 H         -5.7196783985        1.4444033634        2.0213294263
 H         -4.4016644347        2.5434411908        2.3758649331
 O         -3.7687902926        0.0739500788        1.8869254254
 C         -2.9281890402       -0.9996204387        1.6543424994
 O         -2.8617719461       -1.8105158110        2.6007311432
 H          0.2671133634       -0.5630533178        1.4564054127
 C          0.7171377062       -0.9104368883        0.5329648714
 C          0.0125392414       -1.8066861534       -0.2625330874
 C          0.6001014517       -2.2479105163       -1.4400019893
 C          1.8527496963       -1.7903174806       -1.8108383210
 C          2.5436776083       -0.8889720824       -1.0229162522
 C          1.9673597746       -0.4437573294        0.1597906515
 N          2.6573489800        0.4847060448        0.9612315057
 S          4.2329752473        0.1152215506        1.4107244016
 O          4.4407620946       -1.3129775190        1.4811084187
 O          4.4622160513        0.8583741487        2.6309436834
 C          5.2272918962        0.8144660428        0.1101807404
 C          5.0967521080        2.1636552415       -0.1546143014
 C          5.8684688568        2.7257607305       -1.1588987846
 C          6.7540610262        1.9343915812       -1.8754258307
 C          6.8757423131        0.5820619028       -1.5950460143
 C          6.1062579516        0.0132936255       -0.5919393647
 H          6.1628196953       -1.0341664768       -0.3420056874
 H          7.5648830302       -0.0312079849       -2.1530522661
 H          7.3526977748        2.3747231364       -2.6571182859
 H          5.7763961914        3.7769982698       -1.3797852948
 H          4.3992271232        2.7434110200        0.4267260766
 H          2.1282802311        0.7987245797        1.7618829873
 H          3.5154451234       -0.5248517471       -1.3137828531
 H          2.2945369125       -2.1362694883       -2.7328488642
 H          0.0691028169       -2.9330798635       -2.0798261929
 C         -1.3404039328       -2.2635701640        0.2272735796
 H         -1.1989728333       -2.6900388071        1.2350591844
 C         -1.9509798325       -3.3669895630       -0.6242339668
 C         -3.4359055494       -3.5640919403       -0.6811869600
 C         -2.6969602993       -3.0833186387       -1.8918929697
 H         -2.5759928880       -3.7658730365       -2.7203849291
 H         -2.8039212074       -2.0520423254       -2.1872454501
 H         -3.8190926157       -4.5735430214       -0.6753979379
 H         -4.0552626938       -2.8606410143       -0.1432835775
 H         -1.3503145894       -4.2712620866       -0.6024164515
 O         -1.6884669185        0.0006526285       -1.5900369172
