  62
        -98.94320846
 C          2.5197429029        0.9859087368       -0.1693815500
 C          3.6664062690        0.8970224460        0.6555581599
 C          4.7493582918        0.0445081999        0.1535191210
 C          4.6140251444       -0.5768978417       -1.0324351986
 C          5.6410044995       -1.4578416645       -1.6909797315
 C          5.6210361762       -2.9135150057       -1.2047292362
 C          6.1701369895       -3.1364599795        0.2049525280
 H          6.2988144598       -4.2131790072        0.3320310859
 H          7.1567693599       -2.6792615239        0.2861713028
 C          5.2636152307       -2.6122473706        1.3273875858
 H          5.1780769132       -3.3691126910        2.1103638641
 H          4.2581886450       -2.4438559204        0.9344637103
 C          5.7571475280       -1.3270327207        1.9919786927
 H          5.0237835848       -1.0262441014        2.7446854370
 H          6.7034568223       -1.5183696218        2.5027800016
 C          5.9529237404       -0.1516714802        1.0252997223
 H          6.0880560229        0.7584846855        1.6148768758
 H          6.8429781127       -0.3093548279        0.4166386580
 H          6.2246493961       -3.4979642400       -1.9029128725
 H          4.5954740440       -3.2857566299       -1.2595890291
 H          5.4171602494       -1.4493176524       -2.7598314838
 H          6.6354169351       -1.0364608854       -1.5409085950
 O          3.5001619498       -0.4536447134       -1.8024233951
 C          2.4208099738        0.3126941868       -1.3868326477
 O          1.4599388278        0.3181978203       -2.1793019373
 H         -1.1530036887        2.1995968655       -0.8206034325
 C         -1.0860055672        1.3214224149       -0.1974488929
 C          0.1104935011        1.0024562926        0.4232552087
 C          0.1572968540       -0.1341363586        1.2271829912
 C         -0.9569523990       -0.9338466869        1.3883634535
 C         -2.1462274892       -0.6194603485        0.7529525013
 C         -2.2084523661        0.5164753084       -0.0404467705
 N         -3.4099347153        0.8412942965       -0.6903424370
 S         -4.8362532887        0.8400121360        0.1915560717
 O         -5.7094862737        1.7611587167       -0.5026291773
 O         -4.5934847320        1.1142797618        1.5887120359
 C         -5.4670321184       -0.8130306040       -0.0071317359
 C         -5.6761217228       -1.2801779914       -1.2899133105
 C         -6.1799366128       -2.5593389924       -1.4623460854
 C         -6.4673211080       -3.3444272964       -0.3555658857
 C         -6.2545631007       -2.8599381634        0.9258553864
 C         -5.7499291177       -1.5812372942        1.1050540648
 H         -5.5658064476       -1.1641563627        2.0824607949
 H         -6.4794361677       -3.4715774269        1.7848450714
 H         -6.8600421070       -4.3395453034       -0.4929115562
 H         -6.3466982890       -2.9395844887       -2.4573322210
 H         -5.4446154275       -0.6379317450       -2.1232369111
 H         -3.3484737409        1.6551512829       -1.2844399068
 H         -3.0189113485       -1.2408945455        0.8704750627
 H         -0.9010677485       -1.8129944258        2.0124537998
 H          1.0856884663       -0.3812433567        1.7243144210
 C          1.3543547462        1.8448953546        0.2860692940
 H          1.6318950159        2.2042600546        1.2883198335
 C          1.1926901175        3.0403935482       -0.6287800958
 C          0.5565890757        4.2986372755       -0.1197454890
 C          2.0310134030        4.2576411062       -0.3842697895
 H          2.4184903268        4.7966243905       -1.2357545482
 H          2.7034666508        4.2349178703        0.4606787968
 H          0.2246374944        4.3105804476        0.9075965674
 H         -0.0676779575        4.8707785192       -0.7899202109
 H          1.0155778331        2.7560639226       -1.6602732114
 O          3.7785728966        1.5010906397        1.7560723859
