  62
        -98.94411726
 C         -1.5250097195       -1.4879133410        0.3993670291
 C         -1.7580043698       -0.2931327013        1.1239249596
 C         -2.8927996898        0.5190262887        0.6717303497
 C         -3.6158530595        0.1227446291       -0.3914230507
 C         -4.8108380295        0.8351911892       -0.9650934406
 C         -4.4556057194        1.9710707396       -1.9345357601
 C         -3.8824690797        3.2296096694       -1.2818143294
 H         -3.8854903096        4.0131944998       -2.0420083891
 H         -4.5444675799        3.5532880990       -0.4780633094
 C         -2.4539931198        3.0696404694       -0.7426865591
 H         -1.9914643496        2.1860284496       -1.1888528994
 H         -1.8520656099        3.9296497196       -1.0431750686
 C         -2.3583947701        2.9617345688        0.7787224508
 H         -1.3099990002        2.8066868788        1.0414388310
 H         -2.6912954804        3.8965300985        1.2346306512
 C         -3.1672364901        1.8085337084        1.3845794102
 H         -4.2325609502        2.0369292883        1.3594660800
 H         -2.8599380804        1.6839837580        2.4257503902
 H         -3.7483259592        1.5894232301       -2.6745170801
 H         -5.3719360193        2.2462127898       -2.4620143902
 H         -5.4286695197        1.2253296488       -0.1557756406
 H         -5.3866436593        0.0845943994       -1.5108458211
 O         -3.3431606192       -1.0185285706       -1.0772743811
 C         -2.2924223992       -1.8473401706       -0.7090613512
 O         -2.1618252989       -2.8512674403       -1.4339996316
 O         -1.0577685901        0.0716427384        2.1058336799
 C         -0.3789543995       -2.3855007810        0.8344753490
 C          0.6863112808       -2.3795346304       -0.2333531907
 C          0.9229737211       -3.4550240900       -1.0794040711
 C          1.8896074613       -3.3683276795       -2.0656479509
 C          2.6543894512       -2.2256151793       -2.2074960102
 C          2.4324484909       -1.1460289197       -1.3594124698
 C          1.4435534807       -1.2238640303       -0.3922344801
 H          1.2646657804       -0.3784582906        0.2577170403
 N          3.1989207407        0.0252926104       -1.4719507591
 S          3.8109390103        0.7390676099       -0.0827159187
 O          5.0406203404        1.3720857403       -0.5141158781
 O          3.9315651202       -0.2156004905        0.9932819109
 C          2.6495711901        2.0201386496        0.3326473416
 C          2.3785714902        2.9822077200       -0.6207142181
 C          1.5384650300        4.0327949297       -0.2912988078
 C          0.9925528497        4.1073296691        0.9815198021
 C          1.2696337196        3.1301507887        1.9253000317
 C          2.1058356798        2.0740903390        1.5997348115
 H          2.3406375297        1.2922987487        2.3047000312
 H          0.8345795793        3.1793832583        2.9107416817
 H          0.3454405595        4.9306882389        1.2403187523
 H          1.3153905200        4.7921369200       -1.0234431575
 H          2.8345490104        2.8966983604       -1.5929926680
 H          3.9010529409       -0.0073973992       -2.1975184290
 H          3.4188024014       -2.1650247189       -2.9676969900
 H          2.0573904516       -4.2069163592       -2.7245418212
 H          0.3391916512       -4.3543721401       -0.9778371416
 H          0.0419965703       -1.9061194013        1.7298314993
 C         -0.8687069894       -3.7680594212        1.2092146383
 C          0.0002829305       -4.6559654315        2.0470872382
 C         -1.2382888697       -4.0495839719        2.6333837681
 H         -2.0846504796       -4.6911542321        2.8280596677
 H         -1.1269765299       -3.2459277822        3.3465762385
 H          0.0063578707       -5.7157165814        1.8427613777
 H          0.9559931404       -4.2628827915        2.3604644185
 H         -1.4775502492       -4.2279263110        0.4400065980
