  62
        -98.93719449
 C         -1.9988237280       -0.9228973593        0.3837435396
 C         -2.6807826098        0.1535790473        1.0054102585
 C         -4.1173049321        0.3007532899        0.7158430119
 C         -4.7123213396       -0.5754658152       -0.1146253476
 C         -6.1532285862       -0.7118058715       -0.5606312508
 C         -7.1582026418        0.4079441583       -0.3049622545
 C         -6.9080338283        1.6848976948       -1.1069418026
 H         -7.1232508466        1.4811665054       -2.1589127657
 H         -7.6114717087        2.4473166718       -0.7653979153
 C         -5.4903460354        2.2460475047       -1.0291338032
 H         -5.4491321229        3.1393672096       -1.6583265232
 H         -4.7858350378        1.5252141946       -1.4491728858
 C         -5.0189541084        2.6423620132        0.3685679713
 H         -5.7296925175        3.3425020020        0.8121936907
 H         -4.0626162447        3.1614860772        0.2591129810
 C         -4.8020230624        1.4774898479        1.3493333003
 H         -4.1372538678        1.8264247832        2.1451995381
 H         -5.7365567520        1.1741983486        1.8154758966
 H         -7.2139172812        0.6281548748        0.7570293175
 H         -8.1375655342        0.0209337972       -0.5992376324
 H         -6.5241716478       -1.6255712980       -0.0833616969
 H         -6.1148252094       -0.9204118867       -1.6345122265
 O         -4.0167684039       -1.5973095591       -0.6893111678
 C         -2.6623539908       -1.7979870831       -0.4746675201
 O         -2.2031622164       -2.7712200547       -1.1028505318
 O         -2.1116982698        0.9586674844        1.7919639159
 C         -0.5225640520       -1.0722265916        0.7071427364
 C          0.3544342087       -0.4624602832       -0.3605373880
 C          0.3172307954       -0.9099929495       -1.6778054465
 C          1.1358253658       -0.3384180594       -2.6340849482
 C          2.0211401894        0.6702629892       -2.2942981824
 C          2.0702372804        1.1206445987       -0.9812322368
 C          1.2315885420        0.5592340372       -0.0269068970
 H          1.2728190501        0.9301522861        0.9861363008
 N          2.9644744005        2.1394715973       -0.5992073194
 S          4.0555581317        1.8244779639        0.6312233577
 O          3.3525525912        1.5898949525        1.8654618825
 O          4.9728827893        2.9413173553        0.6117991222
 C          4.8970407329        0.3414599421        0.1051120939
 C          6.1037032911        0.4587128150       -0.5569893562
 C          6.7262738933       -0.6868808664       -1.0256423642
 C          6.1278620241       -1.9234185045       -0.8363176435
 C          4.9143840384       -2.0239028108       -0.1733231335
 C          4.2901339794       -0.8827917749        0.3051783507
 H          3.3480528433       -0.9281613194        0.8264303002
 H          4.4465462427       -2.9842331452       -0.0274972633
 H          6.6093422559       -2.8148733356       -1.2061823629
 H          7.6716559786       -0.6121557375       -1.5384590801
 H          6.5328661707        1.4400818727       -0.6792977627
 H          3.4482422597        2.5675026947       -1.3764067669
 H          2.6643786533        1.1108035483       -3.0411103871
 H          1.0913542093       -0.6888755830       -3.6540521389
 H         -0.3670599307       -1.7008520051       -1.9438277976
 H         -0.3730357599       -0.4902960411        1.6273335732
 C         -0.1032020925       -2.5045563042        0.9763687603
 C          1.0751308446       -2.7599586382        1.8656918558
 C         -0.3089727884       -3.0825664376        2.3425262106
 H         -0.6019863539       -4.1183571414        2.4239276476
 H         -0.7507792475       -2.4440137992        3.0939639034
 H          1.7372772518       -3.5770156458        1.6241586003
 H          1.5690300393       -1.9045994380        2.3040891914
 H         -0.2531948436       -3.1636066194        0.1313916780
