  62
        -98.93586831
 C          1.8083395810        0.7539269134        0.7529703926
 C          2.2606270803        0.3581153009       -0.5285996195
 C          3.7184531334        0.3837419581       -0.7313600932
 C          4.5146678084        0.7979426505        0.2710930205
 C          6.0169286804        0.8047373431        0.2461455941
 C          6.5526051557       -0.6235184509        0.4729959386
 C          7.2931936473       -1.2171919309       -0.7255916552
 H          8.2862018345       -0.7669962812       -0.7873895511
 H          7.4269003055       -2.2836253531       -0.5316227979
 C          6.6127900135       -1.0390245149       -2.0863694444
 H          6.7995363962       -0.0314109752       -2.4606278103
 H          7.1054081333       -1.7243495241       -2.7794600702
 C          5.1019542437       -1.3039501725       -2.1222243689
 H          4.8701175943       -1.8207997257       -3.0556739503
 H          4.8082567445       -1.9699856073       -1.3105066840
 C          4.2272614089       -0.0367120649       -2.0824060133
 H          3.3253592125       -0.2162861877       -2.6750041727
 H          4.7662457117        0.7939490738       -2.5461695297
 H          7.2292435791       -0.6270084994        1.3289697229
 H          5.7105256287       -1.2669976154        0.7369005811
 H          6.3678634235        1.1991098171       -0.7047323339
 H          6.3521098366        1.4669850765        1.0446199828
 O          4.0378411362        1.1937378181        1.4807784122
 C          2.6803727101        1.1739350085        1.7557501622
 O          2.3815966450        1.5448026035        2.9095569824
 O          1.4885866408       -0.0012282396       -1.4549699281
 C          0.3242965557        0.7450526848        1.0649171408
 C         -0.2736163292       -0.6244999008        0.8482626968
 C          0.4679856846       -1.7614397056        1.1570478570
 C         -0.0605031507       -3.0237771682        0.9710049115
 C         -1.3521694973       -3.1811425094        0.5006822628
 C         -2.1111720675       -2.0545448409        0.2133320013
 C         -1.5690330057       -0.7873285950        0.3800770135
 H         -2.1747149774        0.0730338964        0.1477689841
 N         -3.4278999834       -2.1742453953       -0.2587365181
 S         -4.6181127983       -1.1966689729        0.3989063743
 O         -4.3328190743       -0.8655103102        1.7754735909
 O         -5.8542769132       -1.9126990803        0.1620257788
 C         -4.6173396250        0.2762685639       -0.6007925096
 C         -4.8976011350        1.4867137719        0.0013770481
 C         -4.9548065841        2.6293895282       -0.7816177918
 C         -4.7312564989        2.5413890268       -2.1469312486
 C         -4.4510050445        1.3176834531       -2.7361980511
 C         -4.3978674390        0.1708918256       -1.9600286953
 H         -4.1805346810       -0.7944140274       -2.3856025292
 H         -4.2739215580        1.2539413720       -3.7978157948
 H         -4.7733775708        3.4318218190       -2.7542729850
 H         -5.1710433682        3.5814555729       -0.3233367782
 H         -5.0517589566        1.5122956509        1.0682445287
 H         -3.7522567008       -3.1245943698       -0.3669031890
 H         -1.7686644670       -4.1670478131        0.3593849550
 H          0.5346086837       -3.8944446870        1.2029572688
 H          1.4732987044       -1.6430844411        1.5383760347
 H          0.2351257471        0.9848838278        2.1355307236
 C         -0.3712096897        1.8291684579        0.2649933018
 C         -1.5477852721        2.5633214886        0.8318072122
 C         -0.2238655582        3.2535700993        0.7056150092
 H         -0.1093278503        4.0181702982       -0.0476903237
 H          0.3491203524        3.4350080044        1.6036094354
 H         -2.3419633460        2.8549946017        0.1610502089
 H         -1.8849969003        2.2844319361        1.8191988890
 H         -0.3569048690        1.6290408558       -0.8003044235
