  62
        -98.92924209
 C         -2.1467508671       -0.6505652807        0.2150547955
 C         -3.4548485032       -1.1348233285        0.4603738537
 C         -4.5775874474       -0.2502644771        0.0983299242
 C         -4.3081579480        0.9758962529       -0.3836878795
 C         -5.2687587884        2.0497560647       -0.8286166576
 C         -6.4918445086        2.2973231920        0.0680258801
 C         -7.8083034087        1.8297163165       -0.5552279559
 H         -8.6274271792        2.3965963465       -0.1072413729
 H         -7.7918115957        2.0682781496       -1.6207032683
 C         -8.1219125472        0.3454518054       -0.3749438829
 H         -8.3852121857        0.1557870920        0.6678466486
 H         -9.0033969378        0.1183784872       -0.9791086791
 C         -6.9970088246       -0.6134671000       -0.7699047340
 H         -7.4467041610       -1.5846940087       -0.9869928094
 H         -6.5114476238       -0.2767102197       -1.6852862595
 C         -5.9495752666       -0.8207696135        0.3344104141
 H         -6.3307355672       -0.4406773557        1.2865422194
 H         -5.7806897449       -1.8914920029        0.4854904776
 H         -6.3421960349        1.8252815496        1.0377208878
 H         -6.5645414895        3.3723678516        0.2402963141
 H         -4.6653169284        2.9580641020       -0.8934945718
 H         -5.5953060536        1.8206782613       -1.8461970159
 O         -3.0307936651        1.4208391104       -0.5579750736
 C         -1.9228845196        0.6369662691       -0.2714565999
 O         -0.8361500654        1.2071549546       -0.4834717034
 O         -3.6797954649       -2.2675909437        0.9650635512
 C         -0.9831971809       -1.5637710529        0.5546466692
 C          0.0869895428       -0.8036277907        1.2968029671
 C         -0.2383343047       -0.2132892308        2.5154034232
 C          0.7015230747        0.5114102300        3.2210216728
 C          1.9874860000        0.6552838244        2.7313995187
 C          2.3281521722        0.0563271793        1.5241241931
 C          1.3801089023       -0.6698021264        0.8169599414
 H          1.6600613664       -1.0988090436       -0.1294366395
 N          3.6483768648        0.1460805020        1.0487515452
 S          4.0190990918        0.0692493251       -0.5925675583
 O          3.3886766771        1.1466201641       -1.3218571093
 O          3.7679484403       -1.2671941339       -1.0700994489
 C          5.7798497519        0.3443109619       -0.4993897211
 C          6.5940340283       -0.7109744686       -0.1336005730
 C          7.9599197116       -0.5005563110       -0.0334040272
 C          8.4870161868        0.7546665859       -0.2990938287
 C          7.6583143987        1.8035505100       -0.6676124777
 C          6.2908137950        1.5997603751       -0.7681500768
 H          5.6089466788        2.3826547918       -1.0596940271
 H          8.0709309111        2.7772558684       -0.8773785157
 H          9.5506094900        0.9158294240       -0.2211881745
 H          8.6077557332       -1.3143013274        0.2500291574
 H          6.1404310095       -1.6701048475        0.0538066128
 H          4.1680837135        0.8917264800        1.4916521147
 H          2.7207941719        1.2282024591        3.2784170836
 H          0.4311569498        0.9744470990        4.1583278273
 H         -1.2470686556       -0.3173096895        2.8925130997
 H         -1.4118563047       -2.3080273410        1.2474106220
 C         -0.4433524432       -2.3412174898       -0.6364041333
 C         -1.3108094962       -2.6766074844       -1.8112742665
 C         -0.1905819177       -1.6938848748       -1.9639061324
 H          0.6906227126       -1.9882464813       -2.5163964197
 H         -0.4281101571       -0.6455677183       -2.0618077432
 H         -1.2062707088       -3.6514192779       -2.2632038711
 H         -2.3230153402       -2.2990690175       -1.8119013365
 H          0.2660205720       -3.1056715726       -0.3325118630
