  62
        -98.94415594
 C          2.2548057761       -0.8840293233       -0.3895818521
 C          2.4355890280        0.0086138908        0.6949056535
 C          3.2689689163        1.1852365756        0.4158028184
 C          3.7653325555        1.3774777137       -0.8197580258
 C          4.6121470698        2.5396479878       -1.2631328555
 C          6.1065136841        2.3772876202       -0.9524660108
 C          6.4839997112        2.5199518160        0.5225551846
 H          7.5717568961        2.6023892085        0.5675014031
 H          6.0707941503        3.4501795452        0.9136606977
 C          6.0412760276        1.3455054509        1.4064251321
 H          5.8021571966        0.4854378837        0.7766671674
 H          6.8676425271        1.0466317030        2.0551793375
 C          4.8436415070        1.6464965927        2.3075552473
 H          5.1151750032        2.4167574565        3.0326725937
 H          4.5930368752        0.7371850597        2.8595444852
 C          3.5872768953        2.1050176634        1.5556579006
 H          2.7426464025        2.0772242377        2.2484135856
 H          3.7142883717        3.1265943924        1.1980508690
 H          6.4357707900        1.4028374633       -1.3206237662
 H          6.6411960492        3.1438379228       -1.5181285768
 H          4.4921671573        2.6164906561       -2.3460655420
 H          4.2421274022        3.4582262377       -0.8067117850
 O          3.5258641515        0.5190394017       -1.8481777954
 C          2.7822751792       -0.6349083064       -1.6554185360
 O          2.6525282612       -1.3396693063       -2.6785833596
 H         -0.1158525119       -0.2674816822       -1.2611583423
 C         -0.6325130786       -0.7830729018       -0.4597053110
 C          0.0270843803       -1.7969672066        0.2243354505
 C         -0.6537461166       -2.4623131484        1.2351268155
 C         -1.9495134385       -2.1011009820        1.5623058347
 C         -2.5933450804       -1.0770026539        0.8932213800
 C         -1.9277823292       -0.4148709782       -0.1304402060
 N         -2.5677038528        0.6352318178       -0.8118382935
 S         -4.1153332768        0.3740530509       -1.4080498524
 O         -4.3299045817       -1.0171357469       -1.7331932715
 O         -4.2655294752        1.3182100418       -2.4940092059
 C         -5.1782164402        0.8610129233       -0.0654130352
 C         -5.0177608430        2.1268477000        0.4632444899
 C         -5.8408135319        2.5262641599        1.5039236511
 C         -6.8072892954        1.6596905272        1.9927439447
 C         -6.9585167877        0.3936865832        1.4481925070
 C         -6.1372405559       -0.0128740703        0.4079229781
 H         -6.2139496346       -0.9896767004       -0.0424607913
 H         -7.7104762002       -0.2781614177        1.8296220617
 H         -7.4464635256        1.9735746393        2.8028042603
 H         -5.7257072645        3.5099395566        1.9299542217
 H         -4.2563148891        2.7695699388        0.0536337249
 H         -1.9877955835        1.0779648346       -1.5097571911
 H         -3.5991080166       -0.7884016813        1.1509146580
 H         -2.4637320129       -2.6219145697        2.3554993100
 H         -0.1686536391       -3.2615025183        1.7708190851
 C          1.4347082466       -2.1461801103       -0.1971810505
 H          1.3801816267       -2.6282800636       -1.1849687438
 C          2.1397088272       -3.0814112036        0.7636234613
 C          1.9808128623       -4.5652317845        0.6306417492
 C          3.2767856387       -3.9136117455        0.2547945997
 H          4.1350854084       -4.0611585560        0.8929709095
 H          3.5230406416       -3.8269413948       -0.7939619060
 H          1.3497266459       -4.9317022631       -0.1650297249
 H          1.9526354555       -5.1640136334        1.5284759824
 H          2.2333926026       -2.6608276278        1.7581268111
 O          1.9272321543       -0.1627225985        1.8321321650
