  62
        -98.93725765
 C         -1.1811226639       -1.3464687633        0.5903392008
 C         -2.0398511404       -1.0097741159       -0.4812810250
 C         -3.1895949462       -0.1343720538       -0.1657291324
 C         -3.3237442648        0.3410538792        1.0854081715
 C         -4.3800046302        1.2666598991        1.6290161568
 C         -4.1609482451        2.7272816001        1.2060517817
 C         -3.8183152810        2.9228152208       -0.2683902488
 H         -3.5998642062        3.9836016246       -0.4193523170
 H         -2.9023804067        2.3744875426       -0.4989495724
 C         -4.9174554677        2.5255061183       -1.2513868835
 H         -4.5779098673        2.8175009775       -2.2484452578
 H         -5.8205182835        3.0977568167       -1.0275044861
 C         -5.2783999058        1.0385146894       -1.2910516533
 H         -5.8622800083        0.8710324007       -2.2007755330
 H         -5.9210225421        0.7662188447       -0.4580117391
 C         -4.0817419133        0.0954736650       -1.3618738267
 H         -4.4388779128       -0.8986476628       -1.6573139045
 H         -3.4192435043        0.4156952094       -2.1744384851
 H         -3.3318461027        3.1301630116        1.7936935798
 H         -5.0588981199        3.2966371644        1.4529934124
 H         -4.3166800728        1.2080815507        2.7180289658
 H         -5.3673984709        0.9232328952        1.3351555058
 O         -2.4262869119        0.0496672930        2.0711521171
 C         -1.3384558958       -0.7708696153        1.8521120590
 O         -0.5893687963       -0.9086487625        2.8413517256
 O         -1.8732249235       -1.4119467556       -1.6621642591
 C          0.0414017936       -2.2249539185        0.3912043485
 C          0.8373321945       -1.7294191210       -0.7917899203
 C          1.3128715731       -2.5381105902       -1.8149852156
 C          2.0626891771       -1.9916352781       -2.8429387999
 C          2.3754562375       -0.6446731535       -2.8614706376
 C          1.9020254568        0.1731425864       -1.8413092435
 C          1.1376164184       -0.3738689368       -0.8255709206
 H          0.7444276954        0.2739441328       -0.0566108810
 N          2.1927507047        1.5456686734       -1.8095169195
 S          2.4127550673        2.2991797709       -0.3345554995
 O          1.1433221804        2.5382023001        0.3063810936
 O          3.1882511689        3.4802330625       -0.6506178724
 C          3.4072376080        1.1639593915        0.6179020985
 C          4.6952097023        0.9261918918        0.1771155247
 C          5.4850007054        0.0195295880        0.8638558649
 C          4.9746627436       -0.6362947398        1.9742289937
 C          3.6832820257       -0.3823773664        2.4083154209
 C          2.8890080936        0.5265571087        1.7262961100
 H          1.8784396797        0.7364170166        2.0423216987
 H          3.2784365994       -0.8891075872        3.2701225021
 H          5.5858399877       -1.3475811282        2.5068939553
 H          6.4915763243       -0.1758461067        0.5312301936
 H          5.0599780250        1.4630115411       -0.6834098944
 H          2.8507194295        1.8633082750       -2.5055018670
 H          2.9653373213       -0.2241030788       -3.6612296268
 H          2.4161741716       -2.6280374534       -3.6398709962
 H          1.0792097518       -3.5898647777       -1.8222794941
 H          0.6576199383       -2.0463721511        1.2891321859
 C         -0.2437768441       -3.7190123539        0.3585840552
 C         -1.4908521844       -4.2835934019        0.9697893288
 C         -1.3019793625       -4.3192073302       -0.5156216235
 H         -1.1000356887       -5.2730414888       -0.9810289409
 H         -1.8818265774       -3.6464791570       -1.1264602936
 H         -1.4176779902       -5.2077001745        1.5236056358
 H         -2.2083375023       -3.5856168058        1.3774212881
 H          0.6599478535       -4.3043735066        0.4972525907
