  62
        -98.93738188
 C          1.8565300455        1.4288207307        0.3329069575
 C          2.5486778419        0.8506935723       -0.7579846292
 C          3.7398865909        0.0554424274       -0.4165305752
 C          4.0914539036       -0.0815889774        0.8748663756
 C          5.2268607143       -0.9224239184        1.3857500536
 C          4.8235603381       -2.4109167505        1.3799164230
 C          5.6246836881       -3.2773456103        0.4079569160
 H          6.6154087666       -3.4601360627        0.8293283821
 H          5.1156523863       -4.2407643790        0.3331933711
 C          5.8127756607       -2.7021835177       -0.9991942613
 H          6.6133203933       -1.9610307081       -0.9888229215
 H          6.1560635983       -3.5219516721       -1.6338321045
 C          4.5689884430       -2.0719773258       -1.6395115091
 H          3.6587723770       -2.4874470799       -1.2057935464
 H          4.5624328780       -2.3356875837       -2.6991071079
 C          4.5160948270       -0.5346345457       -1.5611498566
 H          5.5337593477       -0.1344026896       -1.5579285109
 H          4.0166998800       -0.1580344905       -2.4588687437
 H          4.9409694255       -2.8244100230        2.3828133856
 H          3.7609333523       -2.4775084168        1.1358309536
 H          6.1090586282       -0.7623195806        0.7701075975
 H          5.4447775650       -0.5921671573        2.4016353859
 O          3.3885487928        0.4753539832        1.8959431628
 C          2.2556630586        1.2356597976        1.6542015460
 O          1.6965384657        1.6695852091        2.6824730455
 H         -0.1754794211       -0.1653087199        0.7778796550
 C         -0.7237631369        0.1824886903       -0.0895906869
 C         -0.4400893090        1.4413592752       -0.6060471485
 C         -1.1636167656        1.8826851675       -1.7055814197
 C         -2.1182516571        1.0673134925       -2.2901643757
 C         -2.3797940915       -0.1938469386       -1.7887899911
 C         -1.6770016734       -0.6362583524       -0.6744427380
 N         -1.9473158895       -1.9081364669       -0.1424120628
 S         -3.5469426505       -2.3745902331        0.0107682837
 O         -3.5621601508       -3.3159412553        1.1086349050
 O         -4.0292101931       -2.8753950108       -1.2522414637
 C         -4.4334047943       -0.8886716018        0.4466397880
 C         -4.0661459072       -0.2262554107        1.6012858310
 C         -4.7236768415        0.9449952461        1.9399088959
 C         -5.7326481527        1.4313941369        1.1223931842
 C         -6.0935358710        0.7517575521       -0.0304139974
 C         -5.4376301849       -0.4192628696       -0.3751523373
 H         -5.6837499190       -0.9779067996       -1.2634040030
 H         -6.8794283603        1.1313408919       -0.6631463677
 H         -6.2397582067        2.3454664556        1.3879023498
 H         -4.4431167904        1.4743525308        2.8364731707
 H         -3.2803981957       -0.6313531261        2.2191792819
 H         -1.4178754309       -2.1284613164        0.6877099082
 H         -3.1051169751       -0.8471924278       -2.2457730363
 H         -2.6636744732        1.4181587148       -3.1526551737
 H         -0.9731523305        2.8613773312       -2.1134799471
 C          0.6170383270        2.2696492192        0.0841152024
 H          0.2346724445        2.5454667484        1.0779371791
 C          0.9834672878        3.5342988845       -0.6639538324
 C          0.1792489676        4.7841061095       -0.4737174262
 C          1.5579875043        4.6849451418        0.1045876273
 H          2.3521912184        5.2610511201       -0.3460149507
 H          1.6600231673        4.5650097461        1.1736674098
 H          0.0278216624        5.4342206202       -1.3221070058
 H         -0.6579740368        4.7417236680        0.2062072104
 H          1.3974128881        3.3322415199       -1.6449181555
 O          2.1930324859        0.9907906418       -1.9567139113
