  62
        -98.92856120
 C          1.9594853628        0.3669165889        0.6530061360
 C          2.6360681580        0.4342484907       -0.5890299872
 C          3.8538024962       -0.3937110372       -0.7141207367
 C          4.2286875911       -1.1776282220        0.3097612525
 C          5.4524075682       -2.0463940521        0.4020163246
 C          6.6059428553       -1.2886955064        1.0809287623
 C          7.4700621730       -0.4521916599        0.1380274484
 H          8.1566626063        0.1297284598        0.7572812362
 H          8.0735770503       -1.1192713995       -0.4811452442
 C          6.7028932594        0.5046207625       -0.7783781860
 H          5.9123719139        1.0014220469       -0.2131384011
 H          7.3979708718        1.2783342103       -1.1102566856
 C          6.1066492328       -0.1889436259       -2.0123586876
 H          6.5428923098       -1.1833072264       -2.1069372626
 H          6.3952657201        0.3614377691       -2.9102364879
 C          4.5740450976       -0.2931554767       -2.0311505012
 H          4.1547327491        0.5982039421       -2.5080397583
 H          4.2815213178       -1.1453691716       -2.6537341470
 H          7.2536435654       -2.0115828921        1.5811573922
 H          6.1754512785       -0.6466766597        1.8538494622
 H          5.7431560463       -2.4089387921       -0.5794873536
 H          5.1816758588       -2.9004796658        1.0265534694
 O          3.5254033522       -1.2429116257        1.4743466344
 C          2.3882884760       -0.4867822317        1.6725431406
 O          1.8482165464       -0.6599608165        2.7858832420
 O          2.2673938862        1.1448542127       -1.5560099074
 C          0.6910267772        1.1623203581        0.9472242523
 C         -0.3973950768        0.7178857711        0.0009747109
 C         -0.6638021711        1.2644641045       -1.2486164600
 C         -1.6556360500        0.7303613986       -2.0547139445
 C         -2.4039282178       -0.3564776773       -1.6441405214
 C         -2.1470322228       -0.9153647364       -0.3987424365
 C         -1.1602264675       -0.3729208947        0.4099473467
 H         -0.9584303733       -0.8220269277        1.3745133184
 N         -2.9042410975       -2.0166265366        0.0367974009
 S         -4.5645531894       -1.9396008592       -0.1633815120
 O         -5.1133902868       -2.7733348015        0.8829793574
 O         -4.9081019309       -2.3165823824       -1.5119712519
 C         -4.9819127037       -0.2263691604        0.1100840193
 C         -5.5422842210        0.5186525533       -0.9071854711
 C         -5.8147188898        1.8590143079       -0.6843623690
 C         -5.5184026066        2.4289886954        0.5437991754
 C         -4.9594518529        1.6659547636        1.5578468980
 C         -4.6875868407        0.3250735946        1.3415306490
 H         -4.2578334392       -0.2963330335        2.1109927108
 H         -4.7296765368        2.1108145828        2.5127200006
 H         -5.7239593266        3.4740125096        0.7137781195
 H         -6.2515824961        2.4541336082       -1.4699085701
 H         -5.7525958953        0.0366128434       -1.8479684414
 H         -2.6585213915       -2.3448256323        0.9590216773
 H         -3.1672520985       -0.7901547582       -2.2695436065
 H         -1.8410661117        1.1664209662       -3.0244522914
 H         -0.0746948036        2.0829113639       -1.6198918921
 H          0.3871286812        0.8101440563        1.9448916791
 C          0.9665848331        2.6491911844        1.1328323952
 C          1.3319784570        3.6305375727        0.0617150006
 C         -0.0000428185        3.7266696888        0.7414209320
 H         -0.1625145036        4.5403542255        1.4324601780
 H         -0.8791606361        3.4352977018        0.1885588182
 H          2.0841619976        4.3675614712        0.3070941044
 H          1.3968027884        3.2844504996       -0.9556512895
 H          1.4845934834        2.7993629629        2.0777443856
