  62
        -98.93878085
 C         -2.8858982752       -0.8208735342        0.2552841117
 C         -2.5538562955       -0.0699791367       -0.8995111297
 C         -2.8581731595        1.3673746718       -0.8359211586
 C         -3.5045586563        1.8631493184        0.2325968444
 C         -3.8652881399        3.3039954839        0.4780307961
 C         -2.7029619490        4.3139514264        0.3828556408
 C         -1.2918915743        3.7303671238        0.5603616764
 H         -0.7335287586        4.3647792373        1.2520385091
 H         -1.3427281696        2.7357113817        1.0078979150
 C         -0.4915673049        3.6664621308       -0.7448722436
 H         -0.6422846544        4.6039651475       -1.2853709462
 H          0.5726064151        3.5960031228       -0.4995112067
 C         -0.8043800535        2.4956413641       -1.6792399293
 H         -0.3525049931        1.5787181077       -1.2872758764
 H         -0.3104172049        2.6921678392       -2.6341864150
 C         -2.2942110922        2.2169668048       -1.9359482541
 H         -2.8508281216        3.1433659107       -2.0583815005
 H         -2.3695206423        1.6311622986       -2.8557985271
 H         -2.7447511099        4.8220589708       -0.5799278186
 H         -2.8724794887        5.0720631050        1.1484514147
 H         -4.6507958937        3.5917925034       -0.2243502605
 H         -4.2953244431        3.3288730581        1.4810913359
 O         -3.9231795416        1.0781161358        1.2635962097
 C         -3.5678534015       -0.2618142191        1.3328822268
 O         -3.9098475034       -0.8320969951        2.3890093951
 H         -0.6612515329       -0.4324034791        1.3048791362
 C         -0.1481700255       -1.2048101607        0.7426432376
 C         -0.8835882365       -2.2505021048        0.1980999150
 C         -0.2023771845       -3.2315990021       -0.5100331087
 C          1.1685746322       -3.1460489248       -0.6865303554
 C          1.8888951147       -2.0843024572       -0.1709943417
 C          1.2189657837       -1.1019138975        0.5458988216
 N          1.9335877530       -0.0035447573        1.0618273248
 S          2.8224447745        0.9108559997       -0.0402116963
 O          2.8075454072        2.2598103892        0.4829171313
 O          2.3459539538        0.7317960163       -1.3896464647
 C          4.4642581276        0.2411585785        0.1205239122
 C          5.0905094642        0.3395904724        1.3475695520
 C          6.3637437089       -0.1870458463        1.4934760351
 C          6.9858892819       -0.7995844355        0.4156198758
 C          6.3451486024       -0.8876731281       -0.8107101259
 C          5.0710429316       -0.3626396643       -0.9628848278
 H          4.5328963297       -0.4085371292       -1.8964902081
 H          6.8309110740       -1.3628772731       -1.6478142984
 H          7.9765298976       -1.2098790321        0.5319522917
 H          6.8657191196       -0.1191886332        2.4451608789
 H          4.5732879781        0.8281357776        2.1564858680
 H          1.3620353013        0.6094196736        1.6260627101
 H          2.9523054886       -2.0004215011       -0.3260257147
 H          1.6816488743       -3.9132840012       -1.2460378760
 H         -0.7482260344       -4.0561775901       -0.9386751019
 C         -2.3849340434       -2.2475818819        0.3828280080
 H         -2.6121172058       -2.5645251003        1.4115763789
 C         -3.1087638853       -3.1635651575       -0.5816315365
 C         -3.3433265587       -4.6013782270       -0.2303893067
 C         -4.4871628643       -3.6336701310       -0.2297144748
 H         -5.2248283536       -3.7017866405       -1.0150168713
 H         -4.8898001225       -3.3134693189        0.7204895424
 H         -3.2995219755       -5.3380403795       -1.0183793706
 H         -2.9770936424       -4.9503989426        0.7232843735
 H         -2.9134778203       -2.9103768932       -1.6173356331
 O         -2.0044709333       -0.5657486232       -1.9160986869
