  62
        -98.94073180
 C         -1.5632660714       -1.1289656099        0.8665011203
 C         -2.7786941512       -1.2729482397        0.1520914000
 C         -3.7616510210       -0.1921601494        0.3408139196
 C         -3.4645715609        0.8491513106        1.1376537496
 C         -4.3443708107        2.0454786009        1.3543558392
 C         -4.0335774901        3.1563192107        0.3410589092
 C         -3.9719822298        2.6724423605       -1.1077470808
 H         -3.7748264193        3.5452055604       -1.7338183308
 H         -3.1224398699        1.9953446803       -1.2229032204
 C         -5.2474066998        1.9715716208       -1.5962169611
 H         -6.0813501299        2.2178673511       -0.9378370114
 H         -5.4968805394        2.3499816408       -2.5897724112
 C         -5.1292520302        0.4511207408       -1.7159853309
 H         -4.2421681600        0.1974378905       -2.3015437506
 H         -6.0000479101        0.0845501110       -2.2661229612
 C         -5.0683526508       -0.3194269291       -0.3910539508
 H         -5.8993079209       -0.0170745388        0.2495414389
 H         -5.1808556810       -1.3830225591       -0.6210094708
 H         -4.7961094799        3.9315995509        0.4356194389
 H         -3.0677379401        3.5979121804        0.5965396194
 H         -5.3864040408        1.7432689011        1.2693356689
 H         -4.1674808809        2.4244822209        2.3624127392
 O         -2.2875585211        0.9531539703        1.8070638899
 C         -1.3176378713       -0.0268757599        1.6894049603
 O         -0.2897036115        0.1898408199        2.3629285006
 H          2.2249235385       -1.5793100409        0.8846859415
 C          1.8274911288       -1.4965527009       -0.1155957986
 C          0.4875737788       -1.7586958206       -0.3570159390
 C          0.0018169093       -1.6335623706       -1.6560726691
 C          0.8463688697       -1.2621495609       -2.6851805489
 C          2.1807218897       -0.9869871012       -2.4379630385
 C          2.6729880992       -1.0994943212       -1.1436943984
 N          4.0228920692       -0.8263352015       -0.8614779180
 S          4.4050097491        0.1907903685        0.4146739621
 O          5.7954086993        0.5270777581        0.1991523125
 O          4.0941476885       -0.4512248613        1.6648298920
 C          3.3900479996        1.6330113087        0.1506981816
 C          3.8809783701        2.6198771585       -0.6837643983
 C          3.0879674905        3.7191836587       -0.9662978286
 C          1.8154901803        3.8093044991       -0.4210859091
 C          1.3390789698        2.8109591993        0.4131895509
 C          2.1294167094        1.7098166091        0.7062708512
 H          1.7662876890        0.9321523692        1.3598796912
 H          0.3526580397        2.8681889296        0.8471634206
 H          1.1932800106        4.6619133392       -0.6435416693
 H          3.4601038809        4.4996569085       -1.6102299286
 H          4.8784730002        2.5139723482       -1.0789324280
 H          4.5690952596       -0.5800912418       -1.6750962578
 H          2.8372719000       -0.6881510214       -3.2409335783
 H          0.4608101000       -1.1757767008       -3.6897762190
 H         -1.0418649207       -1.8350549303       -1.8447686995
 C         -0.4248531316       -2.1338697902        0.7824341308
 H          0.1460427281       -2.0031158203        1.7159111809
 C         -0.8949033420       -3.5814200801        0.7417919807
 C         -0.6543828819       -4.5030045303       -0.4126100391
 C          0.1148053277       -4.6851977804        0.8587811211
 H         -0.1106822727       -5.5313035103        1.4901929712
 H          1.1572534578       -4.4012254306        0.8580931814
 H         -0.1278775415       -4.1233272605       -1.2737158990
 H         -1.4330993820       -5.2099399401       -0.6550661193
 H         -1.8273874822       -3.7214730298        1.2781584505
 O         -3.0487822512       -2.2387175797       -0.6055827800
