  62
        -98.93494786
 C         -1.5623813702       -0.7117064707        0.4610912496
 C         -2.6933374503       -0.9715771303       -0.3486949504
 C         -3.6711938800        0.1291157400       -0.4805547602
 C         -3.4364151097        1.3096048398        0.1195659400
 C         -4.2197311094        2.6059181100        0.1128008302
 C         -5.6731255194        2.6392023205       -0.3532771797
 C         -6.6517539795        1.8816802806        0.5431437903
 H         -6.7360330493        2.4132792205        1.4944485204
 H         -7.6340100696        1.8978383709        0.0657051904
 C         -6.2759751799        0.4352571405        0.8554923301
 H         -5.3491830998        0.4132346502        1.4327575400
 H         -7.0601263699        0.0165515606        1.4923633401
 C         -6.1264635102       -0.4787002994       -0.3594112500
 H         -6.0248392404       -1.5025190595        0.0108186198
 H         -7.0320624702       -0.4326356691       -0.9673358100
 C         -4.9134254302       -0.1906351096       -1.2613631201
 H         -4.6930927505       -1.0989473096       -1.8297345302
 H         -5.1305812200        0.5978896505       -1.9777581000
 H         -5.7492005296        2.2893892806       -1.3785389997
 H         -5.9744076191        3.6903565005       -0.3545941295
 H         -4.1643590392        2.9904718199        1.1361961102
 H         -3.6427682892        3.2995272000       -0.5088082598
 O         -2.3046783396        1.5277639995        0.8533741099
 C         -1.3634827998        0.5360983992        1.0536194397
 O         -0.4028890697        0.8812037989        1.7711535597
 H          2.1843111697       -1.3978937417        1.1390654292
 C          1.9340265196       -1.4360074315        0.0897078492
 C          0.6169523495       -1.6099991312       -0.3066065207
 C          0.3235982394       -1.6461555809       -1.6669795907
 C          1.3325266394       -1.5153773611       -2.6027508107
 C          2.6449133794       -1.3275944014       -2.2035060508
 C          2.9471625496       -1.2838917017       -0.8481187608
 N          4.2708874496       -1.1021986221       -0.4117408209
 S          4.6062842000        0.0489887177        0.7585423092
 O          6.0456169001        0.1873108173        0.7211279991
 O          4.0397657900       -0.3525790723        2.0194343992
 C          3.8440875504        1.5406974380        0.1472543894
 C          2.5308862705        1.8308540983        0.4563592896
 C          1.9507737507        2.9613211385       -0.0991605103
 C          2.6841061908        3.7767052084       -0.9461288202
 C          4.0045373207        3.4724411181       -1.2433941703
 C          4.5892411705        2.3424390479       -0.6972596505
 H          5.6144764804        2.0731540676       -0.8940365606
 H          4.5756160909        4.1103654180       -1.8985883603
 H          2.2245399210        4.6541563586       -1.3733047001
 H          0.9230310308        3.1847613187        0.1421768299
 H          1.9649889103        1.1953751283        1.1192371095
 H          4.9451208396       -1.0396658421       -1.1616720310
 H          3.4304609294       -1.2177847416       -2.9355372409
 H          1.0945360993       -1.5509756509       -3.6550871807
 H         -0.7011272007       -1.7835083606       -1.9777539106
 C         -0.4702029404       -1.7339860010        0.7295255894
 H         -0.0315980503       -1.4421918512        1.6980615194
 C         -0.9936943708       -3.1547961009        0.8862368292
 C         -0.7017526011       -4.2589759708       -0.0802339109
 C         -0.0438149410       -4.2528196312        1.2646811690
 H         -0.3552478112       -4.9773727012        2.0019265390
 H          1.0066874790       -4.0040479414        1.3074394590
 H         -1.4879855713       -4.9730058406       -0.2720034709
 H         -0.0952464011       -4.0380087509       -0.9440404409
 H         -1.9710854207       -3.1767371107        1.3568979293
 O         -2.8980451906       -2.0564493402       -0.9492283705
