  62
        -98.94878624
 C          1.8052422788        1.3452295149       -0.2472888006
 C          2.8853691582        0.6707159297        0.3663185462
 C          3.2716332979       -0.6052008012       -0.2433348566
 C          2.6111489731       -1.0544465923       -1.3264957367
 C          2.8757835653       -2.3466004797       -2.0495603592
 C          2.1644366928       -3.5488872401       -1.4129608263
 C          2.7849843518       -4.0494697538       -0.1079496020
 H          2.3444426148       -5.0262512701        0.1019476812
 H          3.8575812113       -4.1953110023       -0.2445912873
 C          2.5341183608       -3.1313924625        1.0966180260
 H          1.6995807331       -2.4622965884        0.8693879841
 H          2.2267967372       -3.7349555171        1.9549066302
 C          3.7473966670       -2.3081727490        1.5321507260
 H          4.5312573094       -2.9781797767        1.8934932820
 H          3.4443869807       -1.6663672774        2.3639540786
 C          4.3373676315       -1.4131547669        0.4342797123
 H          5.0376660796       -0.7160814033        0.9017411569
 H          4.8776996340       -2.0180454344       -0.2932949545
 H          1.1203306665       -3.2789920514       -1.2321804486
 H          2.1815529932       -4.3655626241       -2.1387256015
 H          2.4965870350       -2.2197091848       -3.0657693821
 H          3.9487523586       -2.5351491302       -2.0971302775
 O          1.6027674285       -0.3586237942       -1.9096898653
 C          1.1313499507        0.8157338484       -1.3488872454
 O          0.1378737186        1.2987270564       -1.9260902252
 O          3.4866222120        1.1076207749        1.3869705775
 C          1.2597935240        2.6103809285        0.3947337822
 C         -0.1727483373        2.3484303619        0.7887121693
 C         -1.2318453152        3.1964922480        0.4939724806
 C         -2.5343690381        2.8227755905        0.7813281360
 C         -2.8097409516        1.5876130904        1.3398492068
 C         -1.7537435008        0.7469181753        1.6634520277
 C         -0.4515948088        1.1430603337        1.4224353244
 H          0.3616597236        0.4711296626        1.6694972718
 N         -2.0376411866       -0.5706924929        2.1345507701
 S         -1.9145629885       -1.6618849711        0.8449155465
 O         -2.2481128352       -2.9588938402        1.3963381812
 O         -0.6204559323       -1.5834156066        0.2019967868
 C         -3.2064621611       -1.0949487813       -0.2327500766
 C         -2.9119395150       -0.1979459661       -1.2403043298
 C         -3.9501696533        0.2802858991       -2.0256372418
 C         -5.2499794129       -0.1404652705       -1.7905341880
 C         -5.5262375785       -1.0432706764       -0.7741911630
 C         -4.4958319738       -1.5241604859        0.0166975350
 H         -4.6571547553       -2.2267225338        0.8176962808
 H         -6.5381034458       -1.3689982018       -0.5945385077
 H         -6.0520412490        0.2388253873       -2.4039857174
 H         -3.7303127770        0.9845365046       -2.8118870253
 H         -1.8913917856        0.1183969346       -1.3989277527
 H         -1.3920912411       -0.8723350903        2.8536385087
 H         -3.8213433163        1.2633985988        1.5216747763
 H         -3.3465984154        3.4896546736        0.5373490644
 H         -1.0381413713        4.1432811615        0.0167580104
 H          1.8592857237        2.7636043051        1.3044490027
 C          1.4315432076        3.8056423653       -0.5170056211
 C          1.5594624650        5.1831613493        0.0601142256
 C          2.7531414594        4.5109411059       -0.5466358464
 H          3.1240889663        4.8698221157       -1.4948000722
 H          3.5259805533        4.1423044810        0.1120506122
 H          1.1131554235        6.0089069721       -0.4728671911
 H          1.5258231087        5.2801792124        1.1346867554
 H          0.9056697774        3.6878632298       -1.4577055150
