  62
        -98.93492864
 C          2.0139070108        0.9053282420        0.7094258030
 C          1.9319165234        0.2032885502       -0.5169807010
 C          2.0949810801       -1.2612487152       -0.4516171309
 C          2.2496955233       -1.8611304136        0.7417949703
 C          2.3677525461       -3.3241249098        1.1169433800
 C          2.6759617521       -4.3803038446        0.0585579000
 C          4.0689757116       -4.2791081601       -0.5613807055
 H          4.8084828525       -4.5339049737        0.2017788077
 H          4.1415248860       -5.0228291111       -1.3577900061
 C          4.4400096146       -2.9099410197       -1.1252593589
 H          4.4785736576       -2.1784546933       -0.3154807618
 H          5.4478690158       -2.9820746410       -1.5427268490
 C          3.5179700325       -2.3844990399       -2.2240862182
 H          3.9896277558       -1.4955972241       -2.6511722867
 H          3.4291724413       -3.1294573702       -3.0169703235
 C          2.1037779782       -1.9819681871       -1.7684400805
 H          1.6946016087       -1.2798732929       -2.5008489999
 H          1.4333047280       -2.8377299505       -1.7354662265
 H          1.9128119275       -4.3691491346       -0.7140891293
 H          2.6063787381       -5.3498452870        0.5594650618
 H          3.1298455215       -3.3692906485        1.9018211616
 H          1.4154777875       -3.5801286848        1.5957940953
 O          2.2698512635       -1.1466037097        1.9069625300
 C          2.1419618669        0.2301054296        1.9225574092
 O          2.1598696943        0.7308187851        3.0667448743
 H         -0.5854877745        1.3111226774        1.0658662192
 C         -0.5957025112        2.0459491085        0.2720072123
 C          0.5654769514        2.7511830538       -0.0211535039
 C          0.5312181492        3.6955285010       -1.0373865913
 C         -0.6328054222        3.8992649796       -1.7590099114
 C         -1.7713337027        3.1609171695       -1.4964621954
 C         -1.7497031647        2.2223559270       -0.4698173071
 N         -2.8915966792        1.4607780250       -0.1603254332
 S         -2.6687444331       -0.1092909168        0.4206155676
 O         -2.4256094895       -0.0444178910        1.8417940190
 O         -1.6854059147       -0.8165736854       -0.3678130074
 C         -4.2950680124       -0.7819375565        0.1287651249
 C         -5.3116307947       -0.4622237013        1.0091581251
 C         -6.5845847069       -0.9548708962        0.7698637421
 C         -6.8189371876       -1.7544104609       -0.3392213971
 C         -5.7885431035       -2.0686593877       -1.2124184529
 C         -4.5132540771       -1.5773107674       -0.9800290430
 H         -3.6790037961       -1.7992956354       -1.6262463797
 H         -5.9722194234       -2.6931418397       -2.0717831657
 H         -7.8102808116       -2.1374219192       -0.5226860522
 H         -7.3872519883       -0.7147283708        1.4481694474
 H         -5.0782506868        0.1538486167        1.8617999504
 H         -3.5871128714        1.4862894865       -0.8939667927
 H         -2.6676810220        3.3016026836       -2.0811780231
 H         -0.6454277455        4.6290158209       -2.5544663659
 H          1.4218487561        4.2483370612       -1.2870659758
 C          1.7943890761        2.4079801910        0.7853556738
 H          1.5627893823        2.6031295612        1.8465492924
 C          3.0117813273        3.2530253029        0.4443757949
 C          4.3981338545        2.7086765213        0.6147119780
 C          3.8653873891        2.9856554936       -0.7572478056
 H          4.2649033875        3.8312680449       -1.2979638126
 H          3.5926766645        2.1523624710       -1.3843075211
 H          5.1593688496        3.3605465006        1.0164684486
 H          4.4932316228        1.6792527187        0.9295587124
 H          2.8700765145        4.2936179400        0.7202600630
 O          1.7329410968        0.7595092754       -1.6279625695
