  62
        -98.93451364
 C         -2.0111654274       -0.5790576110        0.1675478742
 C         -2.7047908337        0.5670825102        0.6263460945
 C         -4.0732456344        0.7840522866        0.1211268855
 C         -4.5828971973       -0.1023638870       -0.7540313251
 C         -5.9557056129       -0.1201904452       -1.3717008406
 C         -7.0390176162       -0.6020191415       -0.3928556864
 C         -6.9373794793       -0.0232625557        1.0160489815
 H         -7.6838790468       -0.5264942571        1.6362925215
 H         -5.9568340268       -0.2619550327        1.4319711215
 C         -7.1804915228        1.4803617916        1.1215491672
 H         -8.1794351146        1.7091625566        0.7433971906
 H         -7.1607149955        1.7387120453        2.1834953125
 C         -6.1713044957        2.3736660184        0.3973236657
 H         -6.3581892782        2.3883411204       -0.6730978154
 H         -6.3280126739        3.3963566091        0.7530158311
 C         -4.7088371519        2.0375139804        0.6722774203
 H         -4.0872232660        2.8659992082        0.3108719981
 H         -4.5449733803        2.0078137161        1.7556201481
 H         -6.9602834944       -1.6888702408       -0.3115190439
 H         -8.0166227534       -0.3658218269       -0.8163675571
 H         -6.1992083536        0.8610977585       -1.7682225517
 H         -5.9122830033       -0.8167726014       -2.2119059848
 O         -3.8759868199       -1.1854710210       -1.1798502671
 C         -2.5849424838       -1.4556549997       -0.7535478278
 O         -2.0925804917       -2.4777879515       -1.2636161182
 H          1.3264298013        0.9429497101        1.4590998448
 C          1.3480729766        0.7520161988        0.3947242297
 C          0.4079664257       -0.1007442264       -0.1646197128
 C          0.4398411185       -0.3212785664       -1.5379863884
 C          1.3865221070        0.3054457121       -2.3278340811
 C          2.3222055243        1.1569297246       -1.7662538255
 C          2.3020895571        1.3792107398       -0.3962724317
 N          3.2785167875        2.2175472291        0.1795993782
 S          4.8691291882        1.7305236422       -0.0492009653
 O          5.6260522906        2.3798308453        0.9964679466
 O          5.2664042243        2.0245630479       -1.4019677710
 C          4.8116733721       -0.0325751301        0.2102721300
 C          4.7000516755       -0.8795141099       -0.8738553451
 C          4.5425098751       -2.2376705817       -0.6479995331
 C          4.4990043090       -2.7227369485        0.6494927346
 C          4.6226771627       -1.8599132508        1.7279216803
 C          4.7735087699       -0.5003415704        1.5090985478
 H          4.8738482189        0.2025705547        2.3208572464
 H          4.5922675425       -2.2417828770        2.7357749490
 H          4.3642050648       -3.7784267856        0.8219348297
 H          4.4467837258       -2.9115244981       -1.4840806613
 H          4.7414957687       -0.4644643624       -1.8672386132
 H          3.1138351662        2.4088828158        1.1578770173
 H          3.0711191722        1.6485211269       -2.3660475362
 H          1.3969633199        0.1284832741       -3.3927094264
 H         -0.2822898717       -0.9938138201       -1.9759334215
 C         -0.6094852403       -0.7848114050        0.7115750649
 H         -0.6101802355       -0.2628760641        1.6817558109
 C         -0.2664305224       -2.2441535747        0.9792906211
 C          0.7848030097       -2.9996565276        0.2279380862
 C          1.0312698053       -2.5917866046        1.6470989078
 H          1.0309518773       -3.3497220712        2.4152445437
 H          1.7320725935       -1.7878120295        1.8161822055
 H          0.5880011163       -4.0375946699        0.0087448640
 H          1.3283924220       -2.4861436418       -0.5492454294
 H         -1.1380244005       -2.8139654180        1.2835782443
 O         -2.2017947999        1.3823865425        1.4477347456
