  62
        -98.93811454
 C          1.9909495706        1.4005511445        0.2942254983
 C          2.6175105538        0.7061553163       -0.7676069341
 C          3.7507831973       -0.1594165485       -0.3969932284
 C          4.1314550129       -0.2385825349        0.8895070468
 C          5.2746836641       -1.0264643683        1.4780327052
 C          5.4541149970       -2.4739278911        0.9963498449
 C          4.1573099891       -3.1969059905        0.6031234992
 H          4.1228163288       -4.1634476940        1.1095999833
 H          3.2903960086       -2.6244143751        0.9381260539
 C          4.0485781532       -3.4535657923       -0.9022467264
 H          5.0186045188       -3.7973203700       -1.2680544792
 H          3.3316830021       -4.2612553766       -1.0696649587
 C          3.5905996473       -2.2624555320       -1.7437973347
 H          2.5319034385       -2.0601623641       -1.5568711628
 H          3.6788015906       -2.5418680318       -2.7964479575
 C          4.3628911252       -0.9528297970       -1.5148012177
 H          5.4197729868       -1.1429773353       -1.3442470901
 H          4.2572679895       -0.3406162912       -2.4144259498
 H          6.1386939216       -2.4936131933        0.1495088652
 H          5.9415232038       -3.0184993237        1.8067174955
 H          6.1999449797       -0.4722302643        1.2970293543
 H          5.0999573542       -1.0183596041        2.5565352782
 O          3.5001657068        0.4537598522        1.8801729366
 C          2.4126977036        1.2693573714        1.6151664956
 O          1.9121317517        1.8061798579        2.6251028096
 H         -0.0430673370       -0.1303341720        0.7224325259
 C         -0.6057822145        0.2378350744       -0.1273057288
 C         -0.3032637175        1.4915010421       -0.6454419217
 C         -1.0476141714        1.9578260885       -1.7207941817
 C         -2.0396730333        1.1712617917       -2.2818236374
 C         -2.3167766209       -0.0872566954       -1.7821806714
 C         -1.5930618315       -0.5544582547       -0.6917583100
 N         -1.8763832262       -1.8253219046       -0.1637238650
 S         -3.4819243761       -2.2487270886        0.0443942599
 O         -3.4833389830       -3.2019257952        1.1320087608
 O         -4.0252556888       -2.7204104237       -1.2048838744
 C         -4.3065391710       -0.7426747070        0.5293025199
 C         -5.3192250724       -0.2272255204       -0.2535807112
 C         -5.9242562470        0.9593672766        0.1290013631
 C         -5.5049565834        1.6085192887        1.2796096973
 C         -4.4880861393        1.0761601647        2.0577451533
 C         -3.8814787273       -0.1108816464        1.6812841605
 H         -3.0910982807       -0.5517980429        2.2679643484
 H         -4.1619888265        1.5817680541        2.9526336884
 H         -5.9725206363        2.5345589123        1.5746043954
 H         -6.7165267540        1.3746751255       -0.4726024403
 H         -5.6115379662       -0.7631847354       -1.1418081834
 H         -1.3233137951       -2.0697888623        0.6439508963
 H         -3.0698550014       -0.7202735128       -2.2225995517
 H         -2.6011028903        1.5418538727       -3.1256006058
 H         -0.8439892925        2.9340534592       -2.1284795247
 C          0.7957105824        2.2918957877        0.0122187247
 H          0.4308114724        2.6305442132        0.9932198841
 C          1.2245785527        3.5020865855       -0.7915644183
 C          0.5111781202        4.8098378643       -0.6304086563
 C          1.8943350758        4.6380615677       -0.0804007234
 H          2.7137324458        5.1423225926       -0.5703390963
 H          2.0153627576        4.5492358479        0.9897402291
 H          0.3825527776        5.4379713516       -1.4989513025
 H         -0.3090786790        4.8497078572        0.0700971690
 H          1.5987014038        3.2364383679       -1.7734984155
 O          2.2539092931        0.8032853281       -1.9675950294
