  62
        -98.94066908
 C          0.7769105233        1.6116914044       -0.5050983093
 C          1.9748362027        1.8146543355        0.2264625974
 C          3.0810821917        0.8773723367       -0.0236678033
 C          2.9119329658       -0.1150254485       -0.9169516556
 C          3.8769102773       -1.1668605497       -1.4220626096
 C          5.1417794886       -1.5083723555       -0.6373433935
 C          4.9027792416       -2.1309811663        0.7372104229
 H          4.4755205599       -3.1275537810        0.6007943767
 H          5.8721607099       -2.2526068666        1.2257681339
 C          3.9755004860       -1.3480730165        1.6636640810
 H          2.9692959873       -1.3199395235        1.2415891041
 H          3.9157418697       -1.8902580243        2.6111308225
 C          4.4172134823        0.0810519165        1.9742177717
 H          5.4439598069        0.0789929573        2.3452355312
 H          3.7733000394        0.4563808452        2.7738999524
 C          4.3199932906        1.0737205141        0.8012823702
 H          5.2073716410        1.0352760056        0.1736329952
 H          4.2564843812        2.0834924124        1.2167770776
 H          5.7779416587       -0.6326832380       -0.5479108975
 H          5.6918750063       -2.2371668913       -1.2390724525
 H          3.2814541938       -2.0738203175       -1.5577396203
 H          4.1744500603       -0.8406264360       -2.4250237837
 O          1.7424177565       -0.2715725749       -1.5992739239
 C          0.6506950859        0.5620473802       -1.4132172438
 O         -0.3300080133        0.2537797963       -2.1176800103
 O          2.1216807246        2.7585647821        1.0485183900
 C         -0.3597640286        2.5840855857       -0.2367528260
 C         -1.3348312175        1.9866653810        0.7489113728
 C         -1.4132868846        2.4845731127        2.0450185402
 C         -2.2895602282        1.9309046977        2.9608804960
 C         -3.0946371792        0.8649649473        2.6042527998
 C         -3.0189421773        0.3551248033        1.3115273778
 C         -2.1477862008        0.9194559524        0.3905204194
 H         -2.0979344614        0.5136047911       -0.6074099204
 N         -3.8221516226       -0.7272059349        0.9353327916
 S         -3.4315356614       -1.7493750611       -0.3184142606
 O         -3.6942512907       -1.1145242799       -1.5845041739
 O         -4.2219118370       -2.9353922890       -0.0483094080
 C         -1.7085035751       -2.1848252520       -0.1570003954
 C         -1.0281119194       -2.5483940286       -1.3003836160
 C          0.2788693209       -2.9951938676       -1.1923270384
 C          0.8826147290       -3.0648071937        0.0525049275
 C          0.1903504691       -2.6850719788        1.1913157548
 C         -1.1207168374       -2.2485688235        1.0904033895
 H         -1.6755384145       -1.9559693211        1.9670337103
 H          0.6669326778       -2.7297950364        2.1578279116
 H          1.8993024166       -3.4158068941        0.1386521196
 H          0.8188420210       -3.2779040458       -2.0820744742
 H         -1.5263144699       -2.4603115099       -2.2521828595
 H         -4.3189897069       -1.1934868492        1.6790229786
 H         -3.7777780754        0.4277399884        3.3160945265
 H         -2.3427553629        2.3284921953        3.9628583447
 H         -0.7696048299        3.3025572988        2.3332350048
 H          0.1145127395        3.4487659005        0.2476789468
 C         -1.0617338171        3.0673203641       -1.4892364304
 C         -1.8100368263        4.3646919174       -1.4419879018
 C         -0.5270667515        4.2664234153       -2.2105487814
 H         -0.5665203478        4.2777664428       -3.2894651659
 H          0.3502361904        4.7460381933       -1.8011118660
 H         -2.7352787632        4.4444997014       -1.9918035506
 H         -1.8018456454        4.9135004059       -0.5123075190
 H         -1.4757850535        2.2699807031       -2.0927677672
