  62
        -98.94517077
 C          0.9358328026        1.2665316434        0.4695830439
 C          1.5023484124        0.7654077321       -0.7301047214
 C          2.3546511956       -0.4247054747       -0.5829420885
 C          2.5585650954       -0.9662349889        0.6304589833
 C          3.3720321868       -2.1966028557        0.9300213383
 C          4.8795092293       -1.9362237241        1.0538251260
 C          5.6016989654       -1.6463720090       -0.2625336466
 H          6.6729194175       -1.7041068517       -0.0594853811
 H          5.3650187174       -2.4279092807       -0.9853958212
 C          5.2884823782       -0.2711126806       -0.8685852324
 H          4.8435113142        0.3711943461       -0.1052901474
 H          6.2174352029        0.2066045122       -1.1878156576
 C          4.3597615672       -0.3096984563       -2.0825526869
 H          4.8498145391       -0.8372485732       -2.9040716576
 H          4.1724675159        0.7173512185       -2.4060802300
 C          3.0037746145       -0.9753765599       -1.8159553066
 H          2.3396891568       -0.7677749125       -2.6595778129
 H          3.1229607583       -2.0562155020       -1.7329935160
 H          5.0341962924       -1.1041709195        1.7444230170
 H          5.3276495027       -2.8270905130        1.4998586995
 H          3.0119576584       -2.5842242017        1.8855556471
 H          3.1920507941       -2.9498090633        0.1617290811
 O          2.0091332548       -0.4478196360        1.7606057517
 C          1.1912907626        0.6700920679        1.7063506394
 O          0.7593465303        1.0359511374        2.8177487410
 H         -0.9395220349        0.3971942899       -1.0492628540
 C         -1.7251366858        1.0155056773       -0.6469136981
 C         -1.4233324906        2.1058249412        0.1527399799
 C         -2.4705000043        2.8932208199        0.6235112034
 C         -3.7799484693        2.5967794026        0.2960729999
 C         -4.0773562020        1.4972462421       -0.4901829627
 C         -3.0407398687        0.7031893663       -0.9629129404
 N         -3.2991094097       -0.4272873170       -1.7537867242
 S         -2.4120639942       -1.8183051178       -1.4844473864
 O         -1.1183049557       -1.7350331766       -2.1110750879
 O         -3.2713734990       -2.8824910896       -1.9610623698
 C         -2.2448936796       -1.9256235538        0.2884153332
 C         -0.9910041837       -1.9216940236        0.8622763392
 C         -0.8838695543       -1.9923210252        2.2421971613
 C         -2.0291018317       -2.0567675246        3.0196630432
 C         -3.2831753692       -2.0649297905        2.4280817404
 C         -3.3952326998       -2.0005417262        1.0492799970
 H         -4.3537415627       -2.0182348539        0.5567243658
 H         -4.1705862764       -2.1191632109        3.0376700093
 H         -1.9385861204       -2.0998424449        4.0934623179
 H          0.0905955659       -1.9743171418        2.7039788871
 H         -0.1230654719       -1.8562630326        0.2231126353
 H         -4.2778319590       -0.6333609364       -1.8924495443
 H         -5.0993533555        1.2565617263       -0.7390689643
 H         -4.5802022170        3.2187321355        0.6662464134
 H         -2.2508528227        3.7408034142        1.2539068743
 C          0.0034233217        2.4617612436        0.5089421257
 H          0.0040304155        2.8059768253        1.5531671254
 C          0.4781365004        3.6062643886       -0.3698580003
 C          0.2562763593        5.0253387321        0.0543469915
 C          1.6369108976        4.4431246640        0.0790498119
 H          2.3550259391        4.7658289346       -0.6595899468
 H          2.0744040473        4.2106677273        1.0395341057
 H         -0.2260675339        5.2023742702        1.0034143080
 H          0.0194379715        5.7558765225       -0.7037741247
 H          0.4145731315        3.3792068357       -1.4266457943
 O          1.3159815219        1.2611883639       -1.8718203296
