  62
        -98.94500759
 C          2.3627287953        0.2535392839       -0.0956833806
 C          1.4145577259        0.6398631776        0.8757375913
 C          0.9037097059        2.0217975095        0.8047757001
 C          1.3498524654        2.8249262475       -0.1786473587
 C          0.9655411663        4.2522448881       -0.4700017719
 C         -0.4157906479        4.3799247735       -1.1289270120
 C         -1.5170705574        3.5442140465       -0.4819502599
 H         -2.4201428650        3.6650115628       -1.0876065634
 H         -1.2436400749        2.4885798092       -0.5382302660
 C         -1.8633523730        3.9239153712        0.9561940505
 H         -2.1551421708        4.9763176099        0.9861503758
 H         -2.7337849394        3.3283734765        1.2437828487
 C         -0.7656360323        3.6901219865        1.9971046775
 H         -0.0206950702        4.4809677267        1.9722371056
 H         -1.2377355171        3.7381303528        2.9825505289
 C         -0.0902808368        2.3269004367        1.8994409239
 H          0.4401207187        2.1278956790        2.8383420297
 H         -0.8642824923        1.5540385058        1.8314633477
 H         -0.3270513338        4.0561517802       -2.1691694411
 H         -0.7020953328        5.4337748442       -1.1249824694
 H          1.0141537427        4.8456882272        0.4385365075
 H          1.7163462384        4.6412929513       -1.1619655611
 O          2.2582427727        2.4036160181       -1.1065619372
 C          2.7690735177        1.1213946594       -1.1056967867
 O          3.5692872761        0.8777936477       -2.0341629439
 H          0.7260447799       -0.9774531068       -1.6146074642
 C          0.6864703977       -1.8572891370       -0.9891519781
 C          1.7436165446       -2.1382017919       -0.1330756787
 C          1.6779075608       -3.2875716917        0.6443952406
 C          0.5640020393       -4.1080648696        0.5880536080
 C         -0.5130608608       -3.7891721637       -0.2188292255
 C         -0.4506160104       -2.6477269539       -1.0102809218
 N         -1.5247524783       -2.2666488899       -1.8395442267
 S         -2.2239056529       -0.7620843730       -1.6070605369
 O         -3.2730062739       -0.6836201651       -2.6010591639
 O         -1.2174058167        0.2657731790       -1.6570238083
 C         -2.9665272767       -0.8347512915        0.0143301560
 C         -2.1543452627       -0.8465962088        1.1308532183
 C         -2.7446365375       -0.9355762799        2.3828721587
 C         -4.1238532812       -1.0118058360        2.4979980418
 C         -4.9247864644       -1.0019041853        1.3657571928
 C         -4.3425799826       -0.9165867734        0.1115853085
 H         -4.9231074180       -0.9028090654       -0.7966745811
 H         -5.9975577639       -1.0605013524        1.4557552921
 H         -4.5751902487       -1.0784692832        3.4753739203
 H         -2.1120549387       -0.9409705009        3.2562487949
 H         -1.0821778214       -0.7797140555        1.0260261459
 H         -2.2528247614       -2.9640064977       -1.9130125425
 H         -1.3942925266       -4.4125555355       -0.2377947803
 H          0.5252590184       -4.9971461553        1.1987586877
 H          2.4946683353       -3.5361561760        1.3021360145
 C          2.8993487769       -1.1669791906       -0.0995458631
 H          3.4732884751       -1.2748666730       -1.0319486790
 C          3.8292080672       -1.3805266146        1.0773735954
 C          4.9685933611       -2.3487196800        0.9774614438
 C          5.2363343456       -0.8744568479        0.9871299071
 H          5.6841603583       -0.4347324929        1.8656018390
 H          5.5307827795       -0.3981885322        0.0629174370
 H          5.2379767831       -2.9210813256        1.8523031374
 H          5.0948843592       -2.8786417067        0.0454305544
 H          3.3212743580       -1.2800906037        2.0297134519
 O          1.0003436150       -0.1400730930        1.7754486264
