  62
        -98.94015956
 C          0.5115417236       -1.7977110040       -0.8174262507
 C         -0.5125214457       -2.5056090826       -0.1369536555
 C         -1.8915555088       -2.0791138273       -0.3950940111
 C         -2.1218675364       -1.0866654481       -1.2718021115
 C         -3.4625648765       -0.5077645293       -1.6350633080
 C         -4.1625899455        0.2622631092       -0.4968075043
 C         -5.1860523465       -0.5721780472        0.2838080430
 H         -6.0581195052        0.0498220907        0.4963132768
 H         -5.5305181705       -1.3902619182       -0.3504922330
 C         -4.7019256770       -1.1353545739        1.6236644859
 H         -4.7232245833       -0.3397355618        2.3723556976
 H         -5.4102276198       -1.9052789595        1.9390071585
 C         -3.2904252973       -1.7245482353        1.6337943906
 H         -3.1521337547       -2.2585586437        2.5767903151
 H         -2.5546400538       -0.9150123770        1.6313657438
 C         -2.9748661445       -2.6708497851        0.4575823292
 H         -2.5935688338       -3.6208318265        0.8379511979
 H         -3.8697262088       -2.8674432124       -0.1313457791
 H         -4.6840876181        1.1078401890       -0.9495227592
 H         -3.4101321408        0.6682269192        0.1821271618
 H         -4.1145614708       -1.3084491271       -1.9904159409
 H         -3.2778168415        0.1703191671       -2.4706286574
 O         -1.1218133129       -0.4845801842       -1.9643856894
 C          0.2149896026       -0.7659136181       -1.7083212023
 O          0.9990471204       -0.0353684934       -2.3448021431
 O         -0.2764780016       -3.4511357091        0.6642320272
 C          1.9322148023       -2.0988254567       -0.3733720877
 C          2.2476297592       -1.2573209747        0.8449784817
 C          2.9637308274       -1.7682530568        1.9209013990
 C          3.1730923913       -0.9998553064        3.0528086400
 C          2.6419696983        0.2743360055        3.1512627349
 C          1.9294498801        0.7947708405        2.0776171617
 C          1.7761690562        0.0437882125        0.9236095890
 H          1.2370800099        0.4698028169        0.0931547560
 N          1.3445679028        2.0689177847        2.1222751864
 S         -0.1347840588        2.3074847915        1.3682181801
 O         -0.6961727543        3.4616709356        2.0431017782
 O         -0.9548450247        1.1174402273        1.3956534655
 C          0.2521673233        2.7722682127       -0.3046249189
 C         -0.7295803959        2.6164297675       -1.2615495574
 C         -0.4661004697        3.0066238599       -2.5638267799
 C          0.7680252042        3.5480036273       -2.8839258207
 C          1.7409383137        3.7047635248       -1.9096949249
 C          1.4837411494        3.3174164756       -0.6047676220
 H          2.2235743742        3.4134089347        0.1727955677
 H          2.7030479945        4.1199994331       -2.1640616510
 H          0.9746821947        3.8410306338       -3.9012189726
 H         -1.2193940626        2.8738687312       -3.3238230216
 H         -1.6711844164        2.1741033510       -0.9762549916
 H          1.3937192860        2.5400531230        3.0137835832
 H          2.7670808322        0.8564372935        4.0514340905
 H          3.7297959054       -1.4083892781        3.8824274944
 H          3.3365862605       -2.7804103995        1.8781110979
 H          1.9303936411       -3.1506334054       -0.0544417142
 C          2.9929271331       -1.9212034459       -1.4396077552
 C          4.2596086781       -2.7175663360       -1.3568249403
 C          3.2461731763       -3.0290507719       -2.4158511176
 H          3.4650082612       -2.7690103017       -3.4401174795
 H          2.6587863028       -3.9296682433       -2.3108296226
 H          5.1828871779       -2.2438509454       -1.6522651767
 H          4.3648865644       -3.4154116618       -0.5403107332
 H          3.0568145897       -0.9078821575       -1.8132172492
