  62
        -98.93712218
 C         -1.8418116176       -1.1005056057        0.2936209790
 C         -2.4396720897       -0.0516639535        1.0347951011
 C         -3.8595489344        0.2478878793        0.7672759320
 C         -4.5118087839       -0.4905826008       -0.1494900968
 C         -5.9368068030       -0.3586439099       -0.6178628546
 C         -6.1409038874        0.8303456274       -1.5696963925
 C         -5.4651897968        2.1265717299       -1.1306501493
 H         -4.3921386421        1.9548730767       -1.0262526239
 H         -5.5989297986        2.8586539367       -1.9315183382
 C         -6.0090326736        2.7398047504        0.1576504053
 H         -7.0773620634        2.9340715889        0.0392542585
 H         -5.5097717447        3.7027214867        0.2935302032
 C         -5.8021492254        1.9165909840        1.4311882043
 H         -6.5227472345        1.1058962175        1.4979026293
 H         -5.9992911536        2.5771495563        2.2806578811
 C         -4.3872883970        1.3777627383        1.6182178171
 H         -3.6712056873        2.2006521167        1.5084493542
 H         -4.2766559479        1.0400068273        2.6559395929
 H         -7.2128537691        0.9976828324       -1.6874033670
 H         -5.7323032442        0.5563985270       -2.5453998369
 H         -6.6058726836       -0.2908950384        0.2347560813
 H         -6.1749813805       -1.2789583528       -1.1556848072
 O         -3.8992188472       -1.4955368025       -0.8344406303
 C         -2.5696792052       -1.8286746151       -0.6472975261
 O         -2.1876309827       -2.7740889658       -1.3628411998
 O         -1.8129714318        0.6177599438        1.9015016422
 C         -0.3761736562       -1.3975809166        0.5682063115
 C          0.4883148977       -0.8136360047       -0.5237511367
 C          0.5876012094       -1.4051104131       -1.7794883929
 C          1.3653990963       -0.8269284150       -2.7654594583
 C          2.0728065396        0.3363580975       -2.5170437684
 C          1.9788303554        0.9371242146       -1.2679705419
 C          1.1873507199        0.3617133264       -0.2830502739
 H          1.1079206260        0.8519131678        0.6761537088
 N          2.6846818911        2.1217692355       -0.9859230223
 S          3.6541947968        2.1630128804        0.3786445132
 O          2.8435761097        2.2158362422        1.5673302867
 O          4.5468346752        3.2798444817        0.1603385609
 C          4.5608616694        0.6292951059        0.3069903152
 C          5.6648535254        0.5575901265       -0.5201861878
 C          6.3288948291       -0.6512404188       -0.6488246679
 C          5.8729548098       -1.7649390645        0.0402129922
 C          4.7641242240       -1.6765526667        0.8673693241
 C          4.0988402198       -0.4684241119        1.0039425291
 H          3.2360927449       -0.3554222707        1.6403160834
 H          4.4112549073       -2.5433200725        1.4031242243
 H          6.3853905452       -2.7080458301       -0.0651273402
 H          7.1948999205       -0.7227944638       -1.2869170136
 H          5.9906163963        1.4492526707       -1.0310620393
 H          3.1891481590        2.4926872894       -1.7788644563
 H          2.6836344967        0.7837824202       -3.2865977155
 H          1.4269464138       -1.2914717009       -3.7378115194
 H          0.0240326370       -2.3008421547       -1.9858328021
 H         -0.1476756345       -0.8559431165        1.4965178460
 C         -0.1018857492       -2.8710260466        0.7914302351
 C          1.1265212223       -3.2753439624        1.5474625607
 C         -0.2254851966       -3.4338188147        2.1742430114
 H         -0.6306600261       -4.4277214490        2.2909311089
 H         -0.5036697714       -2.7545858170        2.9673967314
 H          1.6551046826       -4.1622356370        1.2343013794
 H          1.7624372005       -2.4864684953        1.9196156367
 H         -0.4236962535       -3.5017540756       -0.0262543628
