  62
        -98.93600114
 C          2.0134377410        1.5153191902        0.0963221541
 C          2.3335222325        0.5554576564       -0.8925862489
 C          3.6772666175       -0.0526100216       -0.8109909596
 C          4.5067872994        0.2881278401        0.1915853733
 C          5.9261199894       -0.1381864336        0.5034110913
 C          6.5408931561       -1.3645897743       -0.1662367115
 C          5.9029412274       -2.6964772256        0.2267963724
 H          6.3571449574       -3.4840956040       -0.3785152887
 H          6.1421874671       -2.9019009549        1.2732624253
 C          4.3851680255       -2.7700349353        0.0788888677
 H          3.9144394382       -2.0613447837        0.7637658097
 H          4.0675325511       -3.7704408934        0.3858543083
 C          3.8534808660       -2.5262338920       -1.3322680589
 H          2.7882687549       -2.7737073125       -1.3284010996
 H          4.3490335915       -3.2010612190       -2.0329814868
 C          3.9935026971       -1.0854422795       -1.8546276726
 H          4.9801711375       -0.9123483200       -2.2774029918
 H          3.2633605012       -0.9463859980       -2.6572383453
 H          7.5881579998       -1.3964253287        0.1464508555
 H          6.5391201642       -1.2464902441       -1.2458569302
 H          5.9637520664       -0.2675826750        1.5897586821
 H          6.5538578656        0.7305534163        0.2755849600
 O          4.1456985456        1.2042803852        1.1371061838
 C          2.9160051514        1.8335791892        1.1140577617
 O          2.7450932648        2.6516839739        2.0397838648
 O          1.5540311679        0.2047778310       -1.8165691783
 C          0.6931250826        2.2688762915        0.1398430763
 C         -0.3786854788        1.4659449392        0.8307237548
 C         -1.1286494466        2.0137951285        1.8645513763
 C         -2.1179040779        1.2722174226        2.4876366796
 C         -2.3832213620       -0.0252601975        2.0887208132
 C         -1.6424496922       -0.5797177680        1.0522604527
 C         -0.6496110489        0.1641138242        0.4311774008
 H         -0.0795898358       -0.2694730174       -0.3770686636
 N         -1.9151302556       -1.8916430042        0.6255683358
 S         -3.5189107509       -2.2885806387        0.3532128909
 O         -4.1568511558       -2.5971631272        1.6090800465
 O         -3.4903964407       -3.3573987678       -0.6197343071
 C         -4.2442521417       -0.8168578345       -0.3473720863
 C         -5.2117190195       -0.1233076687        0.3507058662
 C         -5.7232018709        1.0439979129       -0.1934641632
 C         -5.2583398430        1.4965302720       -1.4183433548
 C         -4.2902492333        0.7853024344       -2.1106751093
 C         -3.7749643905       -0.3822060375       -1.5712932006
 H         -3.0221700119       -0.9590973113       -2.0854430474
 H         -3.9280981004        1.1394941981       -3.0623563483
 H         -5.6509494490        2.4088776160       -1.8383701318
 H         -6.4778965758        1.5978008223        0.3411909725
 H         -5.5441264906       -0.5103109833        1.3000080765
 H         -1.3299281719       -2.1945537721       -0.1394477719
 H         -3.1439166832       -0.6205020016        2.5671767856
 H         -2.6880570784        1.7081759591        3.2934916334
 H         -0.9213749605        3.0230196930        2.1889116640
 H          0.8948060770        3.1539990996        0.7630928689
 C          0.2627149853        2.7752378475       -1.2319593084
 C         -0.9054102085        2.2348540092       -1.9948247661
 C         -0.9873805072        3.5931993687       -1.3708271936
 H         -0.9676248340        4.4634114985       -2.0089855972
 H         -1.6078523286        3.6992438448       -0.4937667880
 H         -0.8044368826        2.1564860170       -3.0665305040
 H         -1.4826642348        1.4387252137       -1.5523353496
 H          1.1162715217        3.0890943691       -1.8248776290
