  62
        -98.93969217
 C          1.0503724178        1.3268037356        0.4482773940
 C          2.0035166936        1.0838476814       -0.5658340268
 C          3.1107351556        0.1690477953       -0.2250274766
 C          3.1461462765       -0.3896560032        0.9979979683
 C          4.1514154097       -1.3589573540        1.5676393731
 C          5.6331176429       -1.0731534190        1.2792041737
 C          6.2647023363       -2.0636870698        0.2994752855
 H          7.3433514871       -2.0845671102        0.4702304420
 H          5.8803544932       -3.0619544554        0.5194898847
 C          6.0371963712       -1.7502852409       -1.1782291739
 H          6.6311707024       -0.8776278410       -1.4582289237
 H          6.4111644984       -2.5979150590       -1.7572633287
 C          4.5826861305       -1.4895887314       -1.5752570182
 H          3.9153565839       -2.1883908833       -1.0707265407
 H          4.4890188117       -1.6809442695       -2.6465330380
 C          4.1239160418       -0.0466507588       -1.3158812206
 H          4.9913745825        0.5918145150       -1.1252584817
 H          3.6459502141        0.3531724890       -2.2157963529
 H          5.7498888278       -0.0533334160        0.9162751652
 H          6.1741533523       -1.1443626413        2.2241764492
 H          3.9745238555       -1.3479984082        2.6458042884
 H          3.8905572171       -2.3632835112        1.2229808286
 O          2.1834059715       -0.1515022892        1.9348654781
 C          1.1112040025        0.6824486534        1.6820248485
 O          0.2918321942        0.7713207157        2.6202258009
 H         -0.6918904163       -0.3422053635       -0.1991579350
 C         -1.2013787723        0.2746814985       -0.9230624595
 C         -1.0023594405        1.6479534943       -0.9133351540
 C         -1.6433860015        2.4153581841       -1.8778283738
 C         -2.4494716124        1.8114359017       -2.8277515190
 C         -2.6572095826        0.4437735441       -2.8224862422
 C         -2.0242216320       -0.3313841025       -1.8577012268
 N         -2.2048024043       -1.7219836497       -1.7993998803
 S         -2.2824837592       -2.4682519660       -0.3036845196
 O         -0.9665243315       -2.5793065241        0.2752601660
 O         -2.9589233119       -3.7208588903       -0.5683697625
 C         -3.3384334037       -1.4113842632        0.6720523845
 C         -2.8265178312       -0.6212072637        1.6803532135
 C         -3.6847535850        0.2264151148        2.3647669651
 C         -5.0295733986        0.2696699877        2.0341593125
 C         -5.5308644086       -0.5385737589        1.0245447752
 C         -4.6789326162       -1.3843865348        0.3349957065
 H         -5.0313977718       -2.0368437391       -0.4472670156
 H         -6.5785707604       -0.5088304206        0.7725883745
 H         -5.6894244509        0.9345675498        2.5687492625
 H         -3.2845519131        0.8496797032        3.1487942471
 H         -1.7760473169       -0.6626504444        1.9244067406
 H         -2.8886423098       -2.0918692070       -2.4430793603
 H         -3.2923419702       -0.0224387371       -3.5597594130
 H         -2.9324891927        2.4173548957       -3.5790526749
 H         -1.5053072518        3.4840023832       -1.8908746380
 C         -0.1370015056        2.2315337460        0.1787003562
 H         -0.7322008172        2.2297702282        1.1048244765
 C          0.3191611291        3.6479881927       -0.1034322226
 C         -0.5372548238        4.8112366347        0.2951478424
 C          0.7244135714        4.5173151427        1.0478234916
 H          1.5692875119        5.1777728373        0.9232705769
 H          0.6446992961        4.0945821964        2.0391447951
 H         -0.5573425889        5.6798560363       -0.3456093237
 H         -1.4766249468        4.5979938335        0.7824219894
 H          0.8988955625        3.7234639957       -1.0157593895
 O          1.9366608187        1.6016917506       -1.7120303707
