  62
        -98.93935867
 C         -0.9496335476       -1.4538343284        0.3906636545
 C         -1.5185534636       -0.9018627377       -0.7823899573
 C         -2.3809576660        0.2857285562       -0.5991768347
 C         -2.5968621138        0.7618284363        0.6382803217
 C         -3.4363287468        1.9404217094        1.0505067008
 C         -4.8784172741        1.5117420467        1.3704636132
 C         -5.8277938274        1.5022756791        0.1736604767
 H         -6.7747868495        1.0753234669        0.5115721445
 H         -6.0235957041        2.5302738989       -0.1382278432
 C         -5.3353331170        0.7083334711       -1.0382998897
 H         -4.9000888527       -0.2360889434       -0.7064131991
 H         -6.2013882043        0.4659300969       -1.6570714538
 C         -4.3139599943        1.4770343787       -1.8905206625
 H         -4.6378136637        1.4790709338       -2.9337358833
 H         -4.2882185884        2.5197314391       -1.5752105580
 C         -2.8968282113        0.8935404761       -1.8747457150
 H         -2.1795988591        1.6578235135       -2.1990523565
 H         -2.8304670811        0.0872565763       -2.6131290581
 H         -4.8411039147        0.5155397590        1.8181868068
 H         -5.2868207364        2.1926448569        2.1198572111
 H         -3.4133410318        2.7145044596        0.2890820126
 H         -2.9820971385        2.3361332364        1.9615217608
 O         -2.0753892074        0.1650105877        1.7469183275
 C         -1.2359825383       -0.9286632433        1.6530896875
 O         -0.8143499190       -1.3424789168        2.7514152626
 O         -1.3291024191       -1.3540595858       -1.9426983360
 C          0.0439767075       -2.6014486771        0.3862332304
 C          1.4564920354       -2.1099084464        0.1572556462
 C          2.5247468736       -2.7146787566        0.8117216967
 C          3.8200679008       -2.2797890988        0.6005910386
 C          4.0751127983       -1.2149817663       -0.2454520360
 C          3.0153162553       -0.5996044321       -0.8994786674
 C          1.7198638492       -1.0592476446       -0.7082536749
 H          0.9195101056       -0.5802841944       -1.2486587371
 N          3.2273488053        0.5047689558       -1.7451071404
 S          2.2778525854        1.8632049894       -1.4995057580
 O          0.9617304626        1.6781788714       -2.0514668564
 O          3.0535624121        2.9482292912       -2.0627421837
 C          2.1992067823        2.0239604265        0.2744535042
 C          3.3290551812        2.4512308113        0.9446531718
 C          3.3043869001        2.5101131228        2.3281602830
 C          2.1601543798        2.1320845129        3.0148404043
 C          1.0328267354        1.7095898677        2.3278329566
 C          1.0509054388        1.6549942007        0.9431396069
 H          0.1932285614        1.3300873415        0.3741664617
 H          0.1459325419        1.4012601089        2.8594421096
 H          2.1421347267        2.1660352325        4.0926745480
 H          4.1760107881        2.8435235955        2.8678100524
 H          4.1957768078        2.7434144548        0.3742300624
 H          4.1978004435        0.7692455468       -1.8413068794
 H          5.0831892502       -0.8618627530       -0.3995381009
 H          4.6386300359       -2.7622879577        1.1119196645
 H          2.3325606682       -3.5261799853        1.4969386280
 H          0.0053700913       -3.0339014440        1.3959984854
 C         -0.2844818955       -3.6962060560       -0.6119040327
 C          0.1261368154       -5.1078812791       -0.3253614045
 C         -1.3205077994       -4.7210262312       -0.2651853418
 H         -1.9854736520       -5.0626817634       -1.0439345967
 H         -1.7884192889       -4.6471372373        0.7060460328
 H          0.4608829647       -5.7208860730       -1.1479181817
 H          0.6307754141       -5.3089396624        0.6070983476
 H         -0.2462671625       -3.3581879530       -1.6393607317
