  62
        -98.94037983
 C         -2.4448996694       -1.0295263601       -0.0132131401
 C         -2.5110574194        0.3594927101        0.2516337893
 C         -3.8400472494        0.8745254703        0.6068111788
 C         -4.8844450695        0.0305843303        0.6952992291
 C         -6.2917249395        0.3987764106        1.0806109187
 C         -7.1413681693        0.9255887301       -0.0837851216
 C         -6.7838219992        2.3325370199       -0.5639932122
 H         -7.5866759491        2.6582355096       -1.2282912525
 H         -6.7691749993        3.0133811102        0.2875709375
 C         -5.4510148991        2.4230321995       -1.3203262021
 H         -5.5850887289        3.0198526891       -2.2253847224
 H         -5.1434865991        1.4243801193       -1.6391692216
 C         -4.3114690992        3.0593809498       -0.5240724122
 H         -4.5508405892        4.1038530299       -0.3120249627
 H         -3.4091120591        3.0398773295       -1.1409932421
 C         -3.9932183994        2.3529220404        0.8004375382
 H         -3.0412788294        2.7379067505        1.1747329481
 H         -4.7701111295        2.5635363207        1.5351815080
 H         -7.0630517792        0.2248727697       -0.9181172213
 H         -8.1817906394        0.9317169803        0.2490455482
 H         -6.7571899696       -0.5129412592        1.4610540391
 H         -6.2702009296        1.1387199709        1.8810637484
 O         -4.7708830795       -1.3039197098        0.4593711597
 C         -3.5605986695       -1.8610949900        0.0804925201
 O         -3.6034711795       -3.0905342301       -0.1293947893
 O         -1.5156385594        1.1292403200        0.2015912991
 C         -1.1268514094       -1.6606142503       -0.4198789096
 C         -0.0687833295       -1.4094911099        0.6275002304
 C         -0.3904338897       -1.5748770293        1.9721665704
 C          0.5539617402       -1.3546707788        2.9555451305
 C          1.8404060802       -0.9714703391        2.6201426205
 C          2.1798197404       -0.8269800997        1.2801139805
 C          1.2278092605       -1.0493103601        0.2943381704
 H          1.5142258307       -0.9228734806       -0.7357351596
 N          3.4991817105       -0.5025215599        0.9200869805
 S          3.8227752807        0.4040921195       -0.4646360299
 O          3.1102066908        1.6617706295       -0.4323551505
 O          3.6135610008       -0.4222845010       -1.6263846595
 C          5.5706587307        0.6766707595       -0.2350091097
 C          6.4392334307       -0.3621099707       -0.5130252092
 C          7.7967486207       -0.1730165306       -0.3099578090
 C          8.2613757507        1.0448720196        0.1645361305
 C          7.3783807807        2.0789371997        0.4361311999
 C          6.0187892707        1.8956366397        0.2367732498
 H          5.2960622807        2.6728650698        0.4273581393
 H          7.7426635406        3.0256311499        0.8014257395
 H          9.3186137306        1.1898528596        0.3211299305
 H          8.4866924007       -0.9736622707       -0.5224949586
 H          6.0331502407       -1.2869204408       -0.8880869388
 H          4.0391699104       -0.1604767596        1.7036352204
 H          2.5761929901       -0.7915779487        3.3892057905
 H          0.2852079800       -1.4760168284        3.9943104305
 H         -1.3977601698       -1.8690681991        2.2356166704
 H         -1.3091221094       -2.7451139503       -0.4657206692
 C         -0.7255825292       -1.1778189709       -1.7987701298
 C          0.0609961909       -2.0659613714       -2.7135038793
 C         -1.3813046490       -1.7810266415       -3.0031222796
 H         -1.6256697889       -1.1369463518       -3.8345567499
 H         -2.1024896391       -2.5670470614       -2.8306184394
 H          0.8170160510       -1.6169681517       -3.3406132494
 H          0.3194756908       -3.0498720812       -2.3518253388
 H         -0.5189611091       -0.1127811410       -1.8222777302
