  62
        -98.93435757
 C         -1.9732875804       -1.0304730105        0.3629606993
 C         -2.6600084804       -0.0607230310        1.1332873901
 C         -4.0861993904        0.1644283491        0.8328529404
 C         -4.6569942205       -0.5548929704       -0.1511274099
 C         -6.0706729406       -0.4825234201       -0.6644432596
 C         -6.3182241009        0.7505169704       -1.5473825288
 C         -5.7492990609        2.0565423801       -0.9994675481
 H         -5.9049824211        2.8297299805       -1.7565602176
 H         -4.6713168408        1.9499567801       -0.8642781584
 C         -6.3791607807        2.5449994092        0.3029434323
 H         -7.4540736107        2.6716931892        0.1560526026
 H         -5.9556412607        3.5296526391        0.5173034628
 C         -6.1559383704        1.6571398885        1.5295172217
 H         -6.8212836904        0.7978977584        1.5205936513
 H         -6.4241146203        2.2472096079        2.4108062221
 C         -4.7140461604        1.2024538385        1.7314605412
 H         -4.6117007402        0.8087123978        2.7500376509
 H         -4.0529680004        2.0760309085        1.6947368316
 H         -7.3938414309        0.8548510104       -1.6998974686
 H         -5.8553514910        0.5683449110       -2.5203931890
 H         -6.7719925905       -0.5115163507        0.1641889105
 H         -6.2307122907       -1.3791245898       -1.2674359202
 O         -3.9568217806       -1.4732348899       -0.8733382406
 C         -2.6139018105       -1.7349449899       -0.6563248010
 O         -2.1410193406       -2.5972514794       -1.4186858216
 O         -2.1010658503        0.5988143885        2.0523503104
 C         -0.5080415003       -1.2499390606        0.6956661990
 C          0.3553650794       -0.3646431000       -0.1650032006
 C          0.3267337992       -0.4620048591       -1.5532911507
 C          1.1308336490        0.3518696714       -2.3299693603
 C          1.9780729691        1.2759835711       -1.7420460699
 C          2.0085551493        1.3842197203       -0.3589631298
 C          1.2023100095        0.5644162497        0.4202547298
 H          1.2218962496        0.6612927191        1.4973668599
 N          2.8946639193        2.3049392200        0.2410408906
 S          4.5209103393        2.0037082803       -0.0489016599
 O          5.2381101094        2.6923639597        0.9996785405
 O          4.8401488290        2.3872597511       -1.3998281497
 C          4.6594018894        0.2361882402        0.1421354990
 C          4.7098395197       -0.2807723206        1.4216801687
 C          4.7080405798       -1.6558547207        1.5897301578
 C          4.6424083897       -2.4863082000        0.4811639273
 C          4.5944367495       -1.9514507093       -0.7965721123
 C          4.6015095293       -0.5767933891       -0.9717347115
 H          4.5655384591       -0.1221077685       -1.9479344312
 H          4.5439179694       -2.6004474287       -1.6559566027
 H          4.6238351098       -3.5561032701        0.6142924467
 H          4.7485933000       -2.0757853113        2.5821156776
 H          4.7611638398        0.3981267789        2.2581230791
 H          2.7406005695        2.4120154793        1.2339740107
 H          2.6206644589        1.9096007715       -2.3319348296
 H          1.0991885489        0.2657670321       -3.4056045104
 H         -0.3310929708       -1.1856896289       -2.0105580410
 H         -0.4088027002       -0.8976604112        1.7341125792
 C         -0.0879615202       -2.7142286505        0.6619147880
 C          1.0341294397       -3.2328771399       -0.1838830025
 C          1.2079756699       -3.1225216708        1.2985033075
 H          1.2335445101       -4.0242721612        1.8908677170
 H          1.8467834799       -2.3322177310        1.6641904479
 H          0.9130963797       -4.2113900996       -0.6226072231
 H          1.5716071895       -2.5374044195       -0.8091299122
 H         -0.9288190902       -3.3848778207        0.7997328977
