  62
        -98.93998602
 C         -1.9181371137       -1.6080747940       -0.0079149189
 C         -1.6780826605       -0.3465651810       -0.5997395691
 C         -2.8105824091        0.5989685112       -0.6063074016
 C         -3.9971967852        0.2145796204       -0.1000426867
 C         -5.3290690265        0.9323282184       -0.0223095957
 C         -5.4233802762        2.4317568530       -0.2909354516
 C         -4.7554291720        3.3116867952        0.7660763020
 H         -4.7706920180        4.3447708626        0.4122433826
 H         -5.3521167069        3.2656220059        1.6807104793
 C         -3.3233063107        2.9308276360        1.1334505602
 H         -2.9870115904        3.6145833626        1.9176024521
 H         -3.3092995267        1.9251183224        1.5584133009
 C         -2.3115394168        3.0018845273       -0.0082290573
 H         -2.3256231357        4.0022375427       -0.4453746911
 H         -1.3207129728        2.8310814430        0.4209206890
 C         -2.5072202458        1.9718541304       -1.1328298500
 H         -1.5625013575        1.8834302544       -1.6771669721
 H         -3.2668951819        2.2954643616       -1.8398765410
 H         -5.0390457885        2.6603761475       -1.2805464490
 H         -6.4882559858        2.6799832511       -0.3013057150
 H         -5.9862554461        0.4118997870       -0.7279085517
 H         -5.7249867856        0.7217028923        0.9763923944
 O         -4.1874182340       -1.0325001052        0.4264702553
 C         -3.1615476845       -1.9558552577        0.5136656508
 O         -3.4768746366       -3.0291928566        1.0667246749
 O         -0.5741066560       -0.0198920083       -1.1061180291
 C         -0.7931669212       -2.6236709703        0.0852434083
 C          0.3929854404       -1.9746978968        0.7545512210
 C          0.2183059800       -1.4068622347        2.0141948148
 C          1.2575971366       -0.7530801812        2.6468757972
 C          2.4948301334       -0.6452441258        2.0353679940
 C          2.6798422729       -1.2109704732        0.7821056125
 C          1.6373121100       -1.8811448881        0.1542539816
 H          1.8008861857       -2.3122334974       -0.8207634851
 N          3.9305337191       -1.0979352757        0.1467495401
 S          4.6178318474        0.4262302636        0.0494002769
 O          5.5740507497        0.3348034359       -1.0316805431
 O          5.1557883972        0.7902326117        1.3366873019
 C          3.2883771342        1.5285973867       -0.3929382369
 C          2.7870419105        1.4589801333       -1.6771495270
 C          1.7420630873        2.2930364364       -2.0354049332
 C          1.2159659223        3.1758754819       -1.1059960263
 C          1.7260436343        3.2295186064        0.1813732257
 C          2.7721800085        2.3975707815        0.5457350296
 H          3.2006213993        2.4127974471        1.5346303624
 H          1.3108471132        3.9156153318        0.9027063188
 H          0.4014764591        3.8247125817       -1.3873153798
 H          1.3368304191        2.2474975658       -3.0333560117
 H          3.2270241783        0.7677430020       -2.3781281064
 H          3.9632374844       -1.5505678810       -0.7555563343
 H          3.3150642206       -0.1298650306        2.5079007353
 H          1.1040822970       -0.3169312105        3.6224998186
 H         -0.7532885783       -1.4762861413        2.4853268182
 H         -1.1606216429       -3.4320079451        0.7332233830
 C         -0.4936601833       -3.1956869971       -1.2845047970
 C          0.1377994969       -4.5486121476       -1.4143459387
 C         -1.3034117607       -4.3554918743       -1.7771806864
 H         -1.5820966009       -4.3842235177       -2.8199700407
 H         -2.0594952594       -4.7493733723       -1.1136730920
 H          0.8469197876       -4.7154128553       -2.2113614385
 H          0.3643450846       -5.0837740324       -0.5045843641
 H         -0.2277749772       -2.4326759654       -2.0074041043
