  62
        -98.93538416
 C         -2.2914749627       -1.1268593204       -0.5155915368
 C         -3.6009236895       -1.0182441958        0.0119585410
 C         -4.3564735437        0.1963086503       -0.3384878046
 C         -3.7683417838        1.1290308422       -1.1074762574
 C         -4.3323326804        2.4580194509       -1.5280835982
 C         -3.9065266419        3.5640536598       -0.5475027343
 C         -4.8283521624        3.7462774215        0.6577041485
 H         -4.3468828681        4.4612112178        1.3289332630
 H         -5.7691854629        4.1903413123        0.3257649077
 C         -5.1402524385        2.4693094410        1.4424693905
 H         -5.4698425733        2.7627305060        2.4411222451
 H         -4.2284733512        1.8811633218        1.5646974412
 C         -6.2347119980        1.6117979801        0.7896809181
 H         -6.7291402964        2.1960633206        0.0138995538
 H         -6.9987756445        1.3746764464        1.5328640577
 C         -5.7573597673        0.2745366337        0.2046764311
 H         -5.7952560926       -0.4956426921        0.9813806050
 H         -6.4529481429       -0.0397444947       -0.5805250798
 H         -3.8637616922        4.5128500646       -1.0862761029
 H         -2.8929556255        3.3376908182       -0.2051368235
 H         -5.4132549620        2.4071973338       -1.6183571535
 H         -3.9063677716        2.6802928412       -2.5086241761
 O         -2.4999921664        0.9931982798       -1.5818858703
 C         -1.7288422714       -0.1222658277       -1.3025272920
 O         -0.5938242257       -0.0943650048       -1.8164400963
 O         -4.1181808124       -1.9007507573        0.7483725239
 C         -1.4754436895       -2.3589775582       -0.1585550350
 C         -0.3565295922       -1.9219958122        0.7538882041
 C         -0.6228267541       -1.7200802321        2.1054661405
 C          0.3558075307       -1.2368943838        2.9536553269
 C          1.6179457590       -0.9362026735        2.4712850033
 C          1.8892343088       -1.1255279207        1.1234431615
 C          0.9109894741       -1.6296075899        0.2762726709
 H          1.1308572028       -1.7558789406       -0.7719180206
 N          3.1681472661       -0.8113411395        0.6185101661
 S          3.7742714278        0.7059786597        1.0566245722
 O          4.3762810948        0.5913703653        2.3624764598
 O          2.7473183182        1.7160383166        0.9264337551
 C          5.0423513606        0.9395406224       -0.1730304335
 C          6.3386691372        0.5532648710        0.1083578521
 C          7.3114159430        0.7155485916       -0.8654671494
 C          6.9729829399        1.2563170924       -2.0967923463
 C          5.6667754161        1.6384880209       -2.3647859708
 C          4.6888188063        1.4783896016       -1.3958921724
 H          3.6625062564        1.7692577990       -1.5592880029
 H          5.4056351868        2.0596163102       -3.3224186987
 H          7.7311831803        1.3831344063       -2.8532977089
 H          8.3281347961        0.4212237914       -0.6612646378
 H          6.5540001527        0.1449834118        1.0818738943
 H          3.1944804024       -0.9120945450       -0.3881441030
 H          2.3859265802       -0.5372078124        3.1143299248
 H          0.1344233929       -1.0845377404        3.9995543710
 H         -1.6157925515       -1.9300939962        2.4785710808
 H         -2.1553626690       -3.0010026465        0.4170895419
 C         -1.0126860647       -3.1144344061       -1.3861352135
 C         -0.4901440977       -4.5106870918       -1.2324804107
 C         -1.8214072699       -4.2754465676       -1.8785190602
 H         -1.9120114326       -4.4234366030       -2.9441734216
 H         -2.7122026821       -4.5339741247       -1.3251818144
 H          0.3346691479       -4.8247518499       -1.8534562900
 H         -0.4757223701       -4.9278672067       -0.2370079416
 H         -0.5558950480       -2.4795514143       -2.1353722867
