  62
        -98.93960991
 C         -2.5683374688       -1.3712984424        0.1942827448
 C         -2.8127624647       -0.4591156164       -0.8617477411
 C         -3.9399459152        0.4675255779       -0.6624395248
 C         -4.6567094540        0.4111293375        0.4738456977
 C         -5.7923045627        1.3278190142        0.8231401003
 C         -5.2978620704        2.5585210298        1.5958715791
 C         -4.1047789844        3.2579017366        0.9446173920
 H         -3.8636388258        4.1289009312        1.5576989786
 H         -3.2390790841        2.5921516690        0.9783757754
 C         -4.3446540088        3.7037590374       -0.5046176523
 H         -5.4149141922        3.7303477536       -0.7122329303
 H         -3.9657095034        4.7207532910       -0.6258184721
 C         -3.6468252726        2.8408668726       -1.5577327581
 H         -3.6992163136        3.3647591060       -2.5160482806
 H         -2.5892305958        2.7350706877       -1.3019418087
 C         -4.2347256247        1.4399601348       -1.7703702170
 H         -5.3106631564        1.5150670636       -1.9403156025
 H         -3.7736220795        1.0198647256       -2.6692858671
 H         -6.1268868974        3.2620230665        1.6907686592
 H         -5.0032238644        2.2421618564        2.5990170237
 H         -6.2964606097        1.6373034111       -0.0903248541
 H         -6.4973679785        0.7769285213        1.4478137205
 O         -4.3917129240       -0.4743836303        1.4672084209
 C         -3.3506949271       -1.3778831217        1.3541192096
 O         -3.2247584881       -2.1353890194        2.3364445519
 O         -2.1389059965       -0.4004948729       -1.9242464935
 C         -1.4709212332       -2.4233299331        0.1518240246
 C         -0.1388478093       -1.8619444667        0.5765525222
 C          0.6227789923       -2.4895752218        1.5548420022
 C          1.8611227815       -1.9863000278        1.9143663480
 C          2.3655028993       -0.8523063341        1.3033353341
 C          1.6114983641       -0.2172261859        0.3252758365
 C          0.3682128228       -0.7193395808       -0.0275530196
 H         -0.2083337794       -0.2299164908       -0.7992506549
 N          2.1287876462        0.9315319130       -0.3116947515
 S          3.5304800380        0.6763817515       -1.2123973360
 O          3.5570433761        1.7356415321       -2.1968161948
 O          3.5854399531       -0.6760126035       -1.7190080293
 C          4.8434419693        0.9398523724       -0.0393335369
 C          5.7234580286       -0.0845933423        0.2497271157
 C          6.7409239749        0.1444195473        1.1630428728
 C          6.8597251508        1.3869866747        1.7667117698
 C          5.9688934206        2.4061347443        1.4634929652
 C          4.9501522132        2.1841935552        0.5507256605
 H          4.2403983531        2.9489045817        0.2824306124
 H          6.0650524155        3.3709918791        1.9347891526
 H          7.6517508636        1.5624974508        2.4774839821
 H          7.4345086654       -0.6463069492        1.3999123275
 H          5.5880564740       -1.0350225150       -0.2411112917
 H          1.4428210937        1.3902722452       -0.8959853727
 H          3.3298386897       -0.4563709853        1.5771366046
 H          2.4407067424       -2.4833006854        2.6770820001
 H          0.2334383238       -3.3736425122        2.0385014046
 H         -1.7683334378       -3.1720293285        0.9026016973
 C         -1.4014079881       -3.1395214750       -1.1927106208
 C         -0.2532276148       -3.0289087034       -2.1467800295
 C         -0.4643592762       -4.2963148261       -1.3775814442
 H         -0.8165456498       -5.1716489398       -1.9018528124
 H          0.2250946253       -4.5081307258       -0.5741078515
 H         -0.4829609089       -3.0148085976       -3.2017294990
 H          0.5879294676       -2.4050105388       -1.8846827755
 H         -2.3837308157       -3.2375612362       -1.6444412875
