  62
        -98.94640504
 C          1.6403474877        1.3874579414       -0.0723984698
 C          2.6991181685        0.8633048529        0.7041788401
 C          3.2798640202       -0.3958467864        0.2228481402
 C          2.7927229708       -0.9730137471       -0.8911039698
 C          3.2820419425       -2.2564782465       -1.5070337997
 C          2.6884766643       -3.5241782973       -0.8763386696
 C          3.2103408449       -3.8657000264        0.5196753204
 H          2.8801956963       -4.8814407269        0.7465696305
 H          4.3006209249       -3.8729094350        0.5100187203
 C          2.7095830437       -2.9262697870        1.6258463904
 H          1.8445357929       -2.3654558082        1.2625595004
 H          2.3713097146       -3.5157099274        2.4813481305
 C          3.7584924124       -1.9392673556        2.1382073102
 H          3.2910643416       -1.2995158262        2.8915494802
 H          4.5711893632       -2.4863408944        2.6210429602
 C          4.3537426411       -1.0349858649        1.0509414001
 H          5.0347187318       -1.6048410640        0.4192839501
 H          4.9160013401       -0.2362149041        1.5409716600
 H          1.6016602742       -3.4232510287       -0.8356665895
 H          2.9216267354       -4.3590056270       -1.5412331695
 H          2.9915531424       -2.2261182870       -2.5592352497
 H          4.3701396026       -2.2984828250       -1.4501478998
 O          1.7826532200       -0.4276707185       -1.6189457497
 C          1.1707276385        0.7543171407       -1.2247705497
 O          0.2471019479        1.1290325994       -1.9673546497
 O          3.1313360679        1.4137726035        1.7534551900
 C          0.9391755560        2.6530645005        0.3853237001
 C         -0.5318060336        2.3730812085        0.5752273403
 C         -1.5371679248        3.2277828171        0.1435736503
 C         -2.8691428243        2.8884824953        0.3127805605
 C         -3.2287079726        1.6946558849        0.9100643506
 C         -2.2303321814        0.8377014762        1.3550467806
 C         -0.8992774319        1.1861175580        1.1976676504
 H         -0.1263906809        0.5119524491        1.5473820304
 N         -2.5806903497       -0.3952331942        1.9463238507
 S         -3.4723514083       -1.4398388155        0.9824994109
 O         -4.8291226990       -0.9597383673        0.9093921509
 O         -3.2913782465       -2.7472778952        1.5731482309
 C         -2.7141292786       -1.3733889846       -0.6288247592
 C         -3.2252495098       -0.5202301753       -1.5851770592
 C         -2.5973696601       -0.4434646446       -2.8171784993
 C         -1.4780909890       -1.2185417031       -3.0716168193
 C         -0.9804451178       -2.0751426223       -2.1028580193
 C         -1.5961309776       -2.1482824631       -0.8647761493
 H         -1.2387994066       -2.8026772525       -0.0841124892
 H         -0.1064521670       -2.6725729012       -2.3088623294
 H         -0.9837744592       -1.1500725825       -4.0274024194
 H         -2.9754816310        0.2275781749       -3.5711534793
 H         -4.1018008006        0.0613313735       -1.3515342392
 H         -1.7844440190       -0.8897373731        2.3235860307
 H         -4.2601166922        1.4048199335        1.0302249907
 H         -3.6388706252        3.5612812842       -0.0333336895
 H         -1.2788799861        4.1573431274       -0.3362823198
 H          1.3773924058        2.8975882611        1.3646854001
 C          1.2173069444        3.7938544808       -0.5707997300
 C          1.2469695325        5.2082954209       -0.0757236701
 C          2.5215570034        4.5238417925       -0.4655819101
 H          3.0168122329        4.8295900932       -1.3749107202
 H          3.1994247539        4.2163507535        0.3174109798
 H          0.8689030614        5.9883995003       -0.7191948201
 H          1.0636265524        5.3754273807        0.9749547899
 H          0.8277718246        3.6049683902       -1.5647712899
