  62
        -98.93829537
 C          1.3982442207        1.5102385705       -0.7603110358
 C          2.5925183822        1.1929299865       -0.0626216610
 C          3.2114851562       -0.1039214076       -0.3616510478
 C          2.6454868635       -0.8996319361       -1.2861895728
 C          3.0859637965       -2.2933326546       -1.6324695223
 C          2.5468641447       -3.2796239663       -0.5761217384
 C          3.6254256161       -3.9367883185        0.2880856891
 H          3.1208634205       -4.3985112518        1.1396655244
 H          4.0995919627       -4.7353031428       -0.2872130680
 C          4.7358701849       -3.0170983371        0.8053016908
 H          5.4595669400       -2.8330555404        0.0098209033
 H          5.2641701392       -3.5685808560        1.5860835678
 C          4.2800279876       -1.6688003880        1.3778220025
 H          3.2401059836       -1.7232245591        1.7044799660
 H          4.8814227736       -1.4518513859        2.2631703729
 C          4.4428982820       -0.4779081566        0.4140677065
 H          4.6933695608        0.4142596203        0.9954168117
 H          5.2715751256       -0.6695318678       -0.2728673035
 H          1.9826987085       -4.0712887775       -1.0726785745
 H          1.8327624691       -2.7468598788        0.0583100151
 H          2.6754356584       -2.5307238359       -2.6142991321
 H          4.1712964829       -2.3391982417       -1.6853566380
 O          1.5313491113       -0.5450846498       -1.9694141823
 C          0.8465851900        0.6300627321       -1.6889491647
 O         -0.2061312425        0.7484103033       -2.3475546801
 H         -1.1010893884        0.8032429447       -0.0224833033
 C         -1.0019077275        1.3914193858        0.8746004040
 C         -0.1461895157        2.4841389879        0.8873018051
 C         -0.0471880054        3.2440521953        2.0454478070
 C         -0.7677991132        2.8964823228        3.1747474926
 C         -1.5656529789        1.7675050165        3.1788443914
 C         -1.6748685322        1.0019904366        2.0215916901
 N         -2.4566427571       -0.1604397137        2.0061739396
 S         -2.0114092297       -1.5350138201        1.1471847888
 O         -2.3819917331       -2.6350244901        2.0163123935
 O         -0.6299826642       -1.4927115437        0.7337777206
 C         -3.1367183118       -1.5190034499       -0.2325132799
 C         -2.7252625478       -1.1397200762       -1.4928643982
 C         -3.6560800030       -1.1206771742       -2.5216694072
 C         -4.9718518698       -1.4782351444       -2.2760086326
 C         -5.3695638695       -1.8597517560       -1.0028468241
 C         -4.4460917431       -1.8799301233        0.0281539324
 H         -4.7079466396       -2.1819753924        1.0285743600
 H         -6.3932451859       -2.1394071366       -0.8128630703
 H         -5.6894524933       -1.4597455327       -3.0811333259
 H         -3.3382987823       -0.8194631542       -3.5072216320
 H         -1.6993747534       -0.8540704365       -1.6680280612
 H         -2.8523024031       -0.4085378139        2.9012285801
 H         -2.0942406831        1.4706871021        4.0721219458
 H         -0.6840917353        3.4931133349        4.0704551739
 H          0.6182662811        4.0940980829        2.0670745895
 C          0.6999072477        2.7895000005       -0.3284743393
 H          1.5009566876        3.4711672892       -0.0095448916
 C         -0.1179918137        3.4786144467       -1.3997673173
 C         -0.3763219713        4.9500615644       -1.2813316718
 C          0.5533065579        4.4345182810       -2.3376852397
 H          0.2319843069        4.4521116908       -3.3679034266
 H          1.6133694017        4.5985520216       -2.2091509337
 H          0.0544603340        5.4696379126       -0.4390157960
 H         -1.3405964232        5.3273318591       -1.5846000864
 H         -0.9076633256        2.8599129378       -1.8041836681
 O          3.1149341860        1.9689243966        0.7840573095
