  62
        -98.94308654
 C          2.5671193836        0.1642632053        0.5330534438
 C          2.2012342549       -0.3693906365       -0.7283082281
 C          1.9746207952       -1.8226869032       -0.7699701201
 C          2.0740889720       -2.5419129439        0.3613182948
 C          1.8333953690       -4.0196110175        0.4700622110
 C          0.3734227790       -4.3283606486        0.8263297352
 C         -0.6479453486       -3.6155152482       -0.0605596933
 H         -1.6388714810       -3.9594824601        0.2462022610
 H         -0.6152190330       -2.5402656266        0.1346402349
 C         -0.4646301245       -3.8579367329       -1.5652691563
 H          0.1483574838       -4.7459723417       -1.7278715989
 H         -1.4441066211       -4.0519216142       -2.0071076976
 C          0.1374123946       -2.6721309188       -2.3219117410
 H         -0.3983862499       -1.7605350110       -2.0469321597
 H         -0.0120119914       -2.8375479144       -3.3926148384
 C          1.6363472182       -2.4315024223       -2.1015158222
 H          2.1873036773       -3.3636003090       -2.2492666446
 H          1.9699842525       -1.7102086377       -2.8534209457
 H          0.2249801134       -5.4080926885        0.7579808225
 H          0.1966134784       -4.0240609342        1.8608633803
 H          2.0957902088       -4.4936385859       -0.4738943463
 H          2.4797044990       -4.4132204431        1.2569338339
 O          2.3836385016       -1.9892888710        1.5635706447
 C          2.6155364018       -0.6293696615        1.6804545669
 O          2.8584539593       -0.2520644402        2.8462272549
 O          2.0860876471        0.3178565337       -1.7758319043
 C          2.7855526276        1.6553271091        0.7365167315
 C          1.6464903959        2.4102618844        0.0955721328
 C          1.8042066120        3.4502321786       -0.8100604213
 C          0.6945828938        4.0635254326       -1.3667367736
 C         -0.5842360717        3.6453094504       -1.0494146571
 C         -0.7516419350        2.6100028272       -0.1362301279
 C          0.3585095566        2.0220453684        0.4434411730
 H          0.2195371768        1.2161088083        1.1513554958
 N         -2.0337726204        2.1512852590        0.2238298794
 S         -2.2007587067        0.4783070428        0.4199754501
 O         -1.8050617013        0.1245028827        1.7618658361
 O         -1.5338937330       -0.2173992222       -0.6543279909
 C         -3.9689282843        0.3082145666        0.2619513977
 C         -4.7654679786        0.6947970243        1.3233923837
 C         -6.1418858660        0.5939357906        1.1991484828
 C         -6.6956949680        0.1109349588        0.0224888653
 C         -5.8834656077       -0.2754156273       -1.0328456544
 C         -4.5056582630       -0.1755393892       -0.9157529226
 H         -3.8332755454       -0.4692470494       -1.7059207232
 H         -6.3162051636       -0.6538727440       -1.9448000404
 H         -7.7672493349        0.0325152111       -0.0712005261
 H         -6.7763610960        0.8907018051        2.0185644304
 H         -4.2884157288        1.0542553159        2.2202550156
 H         -2.7561140419        2.5153456347       -0.3837999801
 H         -1.4459269762        4.1083218961       -1.5061850296
 H          0.8295912793        4.8664120924       -2.0757332019
 H          2.7932442699        3.7626154786       -1.1024556901
 H          2.7053753476        1.8014503811        1.8275265790
 C          4.1625800435        2.1613689766        0.3345634148
 C          5.3434107843        1.2386835787        0.2964009413
 C          4.7984255905        1.8109584613       -0.9758238569
 H          5.3767800589        2.5702118827       -1.4819389907
 H          4.2460062245        1.1646105596       -1.6385258522
 H          6.2905687473        1.6036277457        0.6645625972
 H          5.1661876198        0.1932970449        0.5053786885
 H          4.3510216476        3.1606553240        0.7153552292
