  62
        -98.94097764
 C         -1.7205482734       -0.1232763651       -0.6354403500
 C         -2.8995408271        0.3236372172       -1.2863353710
 C         -4.1690156318       -0.1398989089       -0.7160367729
 C         -4.1589666088       -0.9950695920        0.3217935885
 C         -5.3687722048       -1.5690572245        1.0079321981
 C         -5.9676204839       -0.6509184585        2.0824533430
 C         -6.7101140107        0.5757719547        1.5505826937
 H         -7.4434720452        0.2607737679        0.8076244721
 H         -7.2605715415        1.0052204744        2.3900048949
 C         -5.8000846456        1.6578455254        0.9524672668
 H         -4.7720723579        1.4920023444        1.2836616189
 H         -6.1023369040        2.6373526782        1.3298496922
 C         -5.8237700518        1.7331070902       -0.5743884088
 H         -6.8195918581        2.0295469617       -0.9108725967
 H         -5.1180283143        2.5056733969       -0.8905888363
 C         -5.4396338341        0.4239567432       -1.2764535359
 H         -6.2486986262       -0.3009319161       -1.1909008007
 H         -5.2699163303        0.6383102761       -2.3343808221
 H         -5.1670134796       -0.3303246193        2.7533982332
 H         -6.6702467694       -1.2491925983        2.6671930296
 H         -6.1315226236       -1.8102714779        0.2670158665
 H         -5.0439968041       -2.4949322502        1.4876597016
 O         -3.0068628105       -1.4660888490        0.8670095890
 C         -1.7610024606       -1.0334401232        0.4219276270
 O         -0.8074231103       -1.5433156894        1.0389699156
 H          1.9555046792       -0.0295434598        0.2164606250
 C          1.7651150470       -0.7802319631       -0.5307509298
 C          0.6047167475       -0.7313184044       -1.2865681157
 C          0.3553979469       -1.7543178276       -2.1977210699
 C          1.2391638562       -2.8066434835       -2.3346483724
 C          2.3992784236       -2.8506921813       -1.5819916033
 C          2.6617618802       -1.8304750655       -0.6745498286
 N          3.8561795814       -1.8294171721        0.0475673483
 S          4.2491813666       -0.7664019403        1.2591062538
 O          5.5768385400       -1.1839416750        1.6604506424
 O          3.2664741932       -0.7192408301        2.3154999417
 C          4.3449562398        0.8133327158        0.4402597888
 C          4.9146193120        0.8897407134       -0.8150445122
 C          4.9871398443        2.1231039957       -1.4427447956
 C          4.4957106886        3.2537238181       -0.8082024079
 C          3.9345644877        3.1623554641        0.4561323687
 C          3.8595486559        1.9314900736        1.0883915306
 H          3.4232441777        1.8105025308        2.0676812957
 H          3.5530697217        4.0421812710        0.9495608252
 H          4.5486838526        4.2116533046       -1.3011016690
 H          5.4233109464        2.1985947027       -2.4257718201
 H          5.2840789956       -0.0076566909       -1.2823458283
 H          4.4164920020       -2.6654433655        0.0192094682
 H          3.0924292261       -3.6708549645       -1.6887148987
 H          1.0267502306       -3.6000808543       -3.0354676052
 H         -0.5516931022       -1.7202175412       -2.7858752463
 C         -0.3940374956        0.3900994969       -1.1654834177
 H         -0.6278293636        0.7447382353       -2.1836110995
 C          0.1490058548        1.5905643800       -0.4036806700
 C         -0.7774312827        2.5882573074        0.2223581646
 C          0.0604175619        1.6979968373        1.0877587180
 H          0.8931370457        2.1324240480        1.6208795306
 H         -0.4164143717        0.8902298836        1.6217070838
 H         -0.5221289363        3.6351673777        0.1608944377
 H         -1.8382820068        2.3930301847        0.1634357151
 H          1.0466374750        1.9913344940       -0.8658477984
 O         -2.8900048850        1.0724996806       -2.2987012319
