  62
        -98.94434063
 C          1.9093009714        1.3636762415        0.0985878158
 C          2.1614902949        0.4082532859       -0.9155784817
 C          3.5264574434       -0.1381800328       -0.9621194131
 C          4.4421347674        0.2761268076       -0.0688150688
 C          5.8439654060       -0.2487778982        0.0342377467
 C          5.9227011746       -1.4356841940        1.0047702000
 C          4.8646798503       -2.5107120230        0.7551765469
 H          5.0374996132       -3.3108064444        1.4783081470
 H          3.8764172681       -2.0958353570        0.9677277227
 C          4.8745488029       -3.0946870319       -0.6645075000
 H          5.8274407837       -2.8768701942       -1.1482233705
 H          4.7865149841       -4.1811388321       -0.5965909894
 C          3.7309090947       -2.6105563768       -1.5577738687
 H          2.7791015352       -2.7443328203       -1.0367804355
 H          3.7063012789       -3.2421827382       -2.4499680144
 C          3.8243345631       -1.1538972706       -2.0294532786
 H          4.8063758388       -0.9727868636       -2.4705484207
 H          3.0670977996       -1.0072358285       -2.8050814949
 H          6.9176958318       -1.8780029446        0.9290968548
 H          5.7941821319       -1.0601850691        2.0226109918
 H          6.1880204113       -0.5501510759       -0.9532454883
 H          6.4852349059        0.5533799277        0.4033277014
 O          4.1700763341        1.2001504108        0.8860902431
 C          2.9094793003        1.7584889173        0.9951542254
 O          2.8013480113        2.5930685580        1.9154116522
 H         -0.3299012038       -0.4035250451       -0.4218083493
 C         -0.7796004284       -0.0716109948        0.5021778681
 C         -0.4163408650        1.1589105569        1.0304368924
 C         -1.0076086212        1.5709072353        2.2185699233
 C         -1.9391141654        0.7710071692        2.8584001602
 C         -2.2984831331       -0.4550997118        2.3280273053
 C         -1.7051591589       -0.8781733880        1.1460932439
 N         -2.0790269818       -2.1190925425        0.5839636872
 S         -3.6990706560       -2.2206437942        0.1576842795
 O         -4.4845429438       -2.4597361148        1.3423451497
 O         -3.7747844352       -3.2353063993       -0.8692476104
 C         -4.0757733153       -0.6098477244       -0.5092660999
 C         -3.5377828482       -0.2717198278       -1.7350470895
 C         -3.7531297141        1.0027333318       -2.2325623092
 C         -4.4936570887        1.9142412011       -1.4957125893
 C         -5.0255202309        1.5597506082       -0.2659345843
 C         -4.8130610425        0.2863519920        0.2370395195
 H         -5.2061361318       -0.0307153638        1.1889116024
 H         -5.5996660003        2.2720553958        0.3040583906
 H         -4.6587580578        2.9071644440       -1.8837760561
 H         -3.3373288732        1.2801499961       -3.1881570841
 H         -2.9690656456       -1.0063151649       -2.2830112123
 H         -1.5056131942       -2.3692011276       -0.2101124260
 H         -3.0297467719       -1.0879093031        2.8046697628
 H         -2.3907204314        1.1058750262        3.7796500242
 H         -0.7262505554        2.5225918953        2.6450983059
 C          0.5635882139        2.0445921961        0.2990145865
 H          0.7678550238        2.9154093843        0.9356871689
 C         -0.0548643337        2.5335040450       -0.9981705619
 C         -1.0689265810        3.6342538278       -0.9491361642
 C          0.2956497187        3.8960326248       -1.5112847621
 H          0.4011031719        4.0332707893       -2.5769643501
 H          0.9852572940        4.4877208758       -0.9264937301
 H         -1.9055330855        3.5903536014       -1.6283830593
 H         -1.3073184012        4.0523155971        0.0168502744
 H         -0.1975167985        1.7475510724       -1.7275482375
 O          1.3076022939        0.0072180049       -1.7530380403
