  62
        -98.93921151
 C         -2.6717106757       -1.2519619587       -0.3111006205
 C         -2.5531944468       -0.0369166841       -1.0284928071
 C         -3.7550077191        0.8101390149       -1.0536189338
 C         -4.8703388804        0.3956828439       -0.4261677567
 C         -6.1394715556        1.1891420610       -0.3180678753
 C         -6.1455478512        2.0518804475        0.9518822428
 C         -4.8696240265        2.8706124474        1.1500046626
 H         -4.0322454522        2.1912895282        1.3273807478
 H         -5.0004614940        3.4608100730        2.0596938089
 C         -4.5254234855        3.8036571769       -0.0194155480
 H         -4.2392312291        4.7775886489        0.3831731986
 H         -5.4072138862        3.9569965289       -0.6426352354
 C         -3.3646914825        3.3244712353       -0.8931560412
 H         -2.5064078348        3.0799566036       -0.2616760384
 H         -3.0668298639        4.1501375366       -1.5449060523
 C         -3.6614230923        2.1164445020       -1.7905336077
 H         -2.8251381189        2.0075572368       -2.4871328916
 H         -4.5694291059        2.3003685244       -2.3681261586
 H         -6.2671796441        1.3947558316        1.8161498648
 H         -7.0066614887        2.7213444880        0.9104697015
 H         -6.2446683082        1.8194582939       -1.1988165858
 H         -6.9788114249        0.4929546516       -0.2774633257
 O         -4.9514852178       -0.7873775148        0.2352370378
 C         -3.8547727058       -1.6267697234        0.3278893610
 O         -4.0561303214       -2.6639305081        0.9918478872
 H          0.9338276843       -1.0892692631       -0.9431078618
 C          0.7357252023       -0.9665190570        0.1099460605
 C         -0.4309089961       -1.4764192209        0.6549931260
 C         -0.6674846948       -1.2931677655        2.0151872472
 C          0.2395118946       -0.6123011611        2.8039604795
 C          1.3960583332       -0.0878115998        2.2526045186
 C          1.6400981820       -0.2621915115        0.8974737483
 N          2.7929782670        0.2980127999        0.3152183253
 S          4.2680263130        0.0798227595        1.1049829148
 O          4.4850735224       -1.3235927180        1.3822680401
 O          4.3147060952        0.9588242648        2.2463169528
 C          5.4010149795        0.6538026888       -0.1439195089
 C          6.1118294667       -0.2607631748       -0.8969371566
 C          6.9729433386        0.2050151924       -1.8783639548
 C          7.1044569607        1.5689744549       -2.0905853210
 C          6.3830740836        2.4747297032       -1.3266635996
 C          5.5219575660        2.0161067606       -0.3428403840
 H          4.9480466558        2.6823951201        0.2797120240
 H          6.4893524643        3.5344131286       -1.4941125454
 H          7.7751869550        1.9288179032       -2.8547707042
 H          7.5368781000       -0.4961154472       -2.4722976012
 H          5.9830066826       -1.3115467940       -0.6923050145
 H          2.8746077806        0.0513044278       -0.6620415713
 H          2.1102993629        0.4480084223        2.8563337524
 H          0.0447314704       -0.4820874354        3.8582351684
 H         -1.5787050891       -1.6901367485        2.4426761688
 C         -1.4802887046       -2.1854566320       -0.1670286183
 H         -1.8394038884       -3.0462648373        0.4135138825
 C         -0.9926802785       -2.6759573408       -1.5132705757
 C         -0.1103324034       -3.8850569674       -1.5822052026
 C         -1.5297792753       -3.9644576037       -2.0562380652
 H         -1.7164247709       -4.0380276149       -3.1171082242
 H         -2.2438615109       -4.5023202377       -1.4497102277
 H          0.1425085381       -4.3707558770       -0.6516119953
 H          0.6784305854       -3.9091153486       -2.3187039453
 H         -0.8190326764       -1.8752316977       -2.2214992773
 O         -1.5055525374        0.3282331642       -1.6225167077
