  62
        -98.94699111
 C         -2.3231631855       -0.3488158829       -0.4569830955
 C         -1.4244371449        0.5070479851       -1.1373710219
 C         -1.5735337892        1.9459378111       -0.8738634469
 C         -2.5084101696        2.3697035274       -0.0061904742
 C         -2.7371106326        3.7998893780        0.3869620794
 C         -1.9182676741        4.1823906583        1.6270175682
 C         -0.4392563694        3.8042630961        1.5388002825
 H          0.0443970799        4.1720730247        2.4470672329
 H         -0.3372363737        2.7158507941        1.5476085204
 C          0.2897586807        4.3646230203        0.3096561647
 H         -0.2774591577        5.1940979287       -0.1155543969
 H          1.2563796031        4.7597409768        0.6295069887
 C          0.5711151469        3.3225619818       -0.7742348306
 H          1.3066601035        3.7384173343       -1.4684399991
 H          1.0160928778        2.4403819147       -0.3071755974
 C         -0.6443557519        2.8788456866       -1.5991184412
 H         -1.1851715783        3.7565375773       -1.9599116074
 H         -0.2753640261        2.3228906169       -2.4658323236
 H         -2.3476527924        3.6779545268        2.4959096711
 H         -2.0100729197        5.2597509085        1.7798984405
 H         -2.4729681405        4.4462990429       -0.4478872578
 H         -3.7978155595        3.9268440724        0.6116697403
 O         -3.3469172546        1.5216576049        0.6426345943
 C         -3.2659175912        0.1553705181        0.4441869140
 O         -4.0909469680       -0.5046916944        1.1098505243
 H          0.3094293040       -1.2462409962       -0.3026972189
 C         -0.0013240968       -1.9915240053        0.4080822058
 C         -1.3105191651       -2.4505043547        0.3926627118
 C         -1.6873532380       -3.4278389193        1.3054134575
 C         -0.7761535277       -3.9174653909        2.2246052142
 C          0.5111464115       -3.4147672750        2.2735916223
 C          0.8977247302       -2.4349963400        1.3648023865
 N          2.1884948882       -1.8858514030        1.4034749428
 S          2.4260420567       -0.2198708555        1.2907637096
 O          3.3257883454        0.1024844900        2.3821508600
 O          1.1730647255        0.4917179298        1.2718335977
 C          3.3258852133       -0.0379709924       -0.2368150102
 C          2.6668311857        0.1656542596       -1.4318729798
 C          3.4148120622        0.2803216117       -2.5946089714
 C          4.7964480378        0.1868582342       -2.5472564770
 C          5.4437818417       -0.0197176013       -1.3382241327
 C          4.7038985650       -0.1333784645       -0.1734579413
 H          5.1654536718       -0.2791093272        0.7892199761
 H          6.5188779404       -0.0910036244       -1.3000601943
 H          5.3701532362        0.2773176968       -3.4562643714
 H          2.9047663236        0.4408200726       -3.5311086741
 H          1.5901819647        0.2371800806       -1.4591421077
 H          2.7682756610       -2.2623068159        2.1400481815
 H          1.2122093974       -3.7702925393        3.0140784986
 H         -1.0782208382       -4.6796653127        2.9270680424
 H         -2.7056194317       -3.7882857264        1.3058713555
 C         -2.3072712245       -1.8659299352       -0.5807924568
 H         -3.3075748983       -2.2001389217       -0.2716792640
 C         -2.0501009410       -2.3692438649       -1.9872804553
 C         -2.5467034376       -3.7287052218       -2.3736660537
 C         -3.1989265475       -2.5032955763       -2.9388219484
 H         -3.0369508674       -2.2605348827       -3.9780748283
 H         -4.1809285178       -2.2345462524       -2.5765675635
 H         -1.9351183925       -4.3328047512       -3.0258549120
 H         -3.0902863372       -4.2940985290       -1.6318961691
 H         -1.1026710809       -2.0432388238       -2.3942395395
 O         -0.5350798222        0.1167565855       -1.9410092749
