  62
        -98.93452890
 C         -2.3154010408       -0.3764637206        0.1873039105
 C         -3.5072897202       -0.9700211930        0.6620036754
 C         -4.7106676057       -0.1206336755        0.6546459140
 C         -4.6084081331        1.1499769912        0.2271501027
 C         -5.7145662175        2.1590816063        0.0883959059
 C         -6.2837396098        2.1453915352       -1.3405236680
 C         -7.4011865265        1.1305498487       -1.5791100761
 H         -8.3038998720        1.4633881109       -1.0625816909
 H         -7.6172704308        1.1314444472       -2.6499518025
 C         -7.0888929316       -0.3032064267       -1.1422194173
 H         -6.0711695318       -0.5650449034       -1.4376487793
 H         -7.7631414372       -0.9714700479       -1.6814593242
 C         -7.2698513568       -0.5274588834        0.3664911043
 H         -7.9029358517       -1.4023489011        0.5279712611
 H         -7.8035649549        0.3227741436        0.7907232695
 C         -5.9733542890       -0.7681304368        1.1547412613
 H         -6.1290940229       -0.4710064130        2.1971451144
 H         -5.7477653260       -1.8390561957        1.1665897976
 H         -6.6740056495        3.1385227833       -1.5719787613
 H         -5.4562061918        1.9514163586       -2.0278638684
 H         -6.4932723665        1.9817399942        0.8240995065
 H         -5.2678691514        3.1377207889        0.2754253448
 O         -3.4344950281        1.6882142595       -0.2052316693
 C         -2.2652036496        0.9483969028       -0.2445907418
 O         -1.2759070017        1.5724485461       -0.6725227340
 O         -3.5655982275       -2.1609303992        1.0731529165
 C         -1.0452034491       -1.2060171877        0.1492645021
 C          0.0284815757       -0.5498653879        0.9810180304
 C         -0.2492732121       -0.2451962162        2.3119181041
 C          0.7019950792        0.3558811747        3.1121152189
 C          1.9548807123        0.6571519371        2.6067776758
 C          2.2410652109        0.3612813076        1.2797858956
 C          1.2818443607       -0.2430895691        0.4779378034
 H          1.5330548948       -0.4622033431       -0.5458843698
 N          3.4912717395        0.6875432598        0.7305754046
 S          4.1519222433       -0.3097851768       -0.4582186647
 O          3.5725496578        0.0227338560       -1.7351076743
 O          4.0560619845       -1.6947422190       -0.0538825498
 C          5.8510618548        0.2308050113       -0.4136552791
 C          6.1858105581        1.4077299725       -1.0567853059
 C          7.4981527768        1.8495860783       -1.0046583632
 C          8.4486482702        1.1119604939       -0.3141649339
 C          8.0982573422       -0.0678836914        0.3246419718
 C          6.7869822767       -0.5149230593        0.2776550586
 H          6.4699130532       -1.4297127386        0.7519851846
 H          8.8401445797       -0.6404874187        0.8575371121
 H          9.4695508691        1.4577707648       -0.2764943922
 H          7.7747228312        2.7649860289       -1.5024955930
 H          5.4151185183        1.9419014316       -1.5879516305
 H          4.1760050804        0.9398872057        1.4299546667
 H          2.6993371021        1.1271971125        3.2312770734
 H          0.4703865699        0.5868117297        4.1411461971
 H         -1.2272681286       -0.4851258331        2.7072622475
 H         -1.3059058482       -2.1644642992        0.6231055535
 C         -0.6274242037       -1.4715587537       -1.2812323343
 C          0.2145392644       -2.6674798752       -1.6073057999
 C         -1.2262517225       -2.6305830604       -2.0175783422
 H         -1.4622792674       -2.5101306641       -3.0642330481
 H         -1.9270465946       -3.2514258725       -1.4786869161
 H          0.9759460764       -2.5679855225       -2.3668034623
 H          0.4977959372       -3.3152701280       -0.7911838060
 H         -0.4520629257       -0.5594865625       -1.8422072117
