  62
        -98.94633757
 C         -1.7921874101       -0.7419152003        0.2258505463
 C         -3.0904482374       -1.0028071834        0.7252758619
 C         -4.0161893084        0.1375619348        0.7319490929
 C         -3.5860981659        1.3363918186        0.2972146983
 C         -4.4386634001        2.5674523035        0.1985592073
 C         -5.0979667113        2.6764530523       -1.1835145863
 C         -5.7917066880        1.3929739971       -1.6400424041
 H         -6.2456388371        1.5967438995       -2.6123384520
 H         -5.0393272994        0.6159592384       -1.7942483001
 C         -6.8652821946        0.8732607141       -0.6736625608
 H         -7.1680613842        1.6696592521        0.0071511125
 H         -7.7472590966        0.5878187830       -1.2509062614
 C         -6.4476610450       -0.3548627226        0.1373150488
 H         -7.3402398342       -0.7650993365        0.6171947178
 H         -6.0565979901       -1.1223797214       -0.5355238140
 C         -5.4099090527       -0.1052906470        1.2389652707
 H         -5.3523182444       -1.0098175979        1.8516492174
 H         -5.7391911648        0.7192978599        1.8744108816
 H         -5.8214519632        3.4933151161       -1.1575051033
 H         -4.3275839702        2.9276610373       -1.9162336059
 H         -3.8031504690        3.4401006296        0.3576010028
 H         -5.2009213733        2.5386972845        0.9746675807
 O         -2.3234538947        1.5540647555       -0.1511704224
 C         -1.3984241074        0.5221711895       -0.2106897883
 O         -0.2848004339        0.8563179432       -0.6557541368
 O         -3.4543873846       -2.1325569681        1.1495720036
 C         -0.7885268606       -1.8783806020        0.1584663146
 C          0.4534349975       -1.5257311255        0.9376941351
 C          0.3197275493       -1.1181003802        2.2635681800
 C          1.4275542100       -0.7842230221        3.0169592909
 C          2.6949658340       -0.8419502269        2.4622782950
 C          2.8407083040       -1.2539609437        1.1443314427
 C          1.7252318401       -1.6037192913        0.3935065159
 H          1.8727364886       -1.9144618033       -0.6266886132
 N          4.1172166454       -1.3500778520        0.5574324353
 S          4.4509370272       -0.4975716044       -0.8451247493
 O          3.5646273391       -0.9163620441       -1.8986664839
 O          5.8632700905       -0.7131881801       -1.0749133481
 C          4.1779478010        1.2110634180       -0.4108819464
 C          5.2733327348        1.9864818316       -0.0800956952
 C          5.0742576491        3.2983071866        0.3166238584
 C          3.7862587138        3.8084927691        0.3857221734
 C          2.6989904024        3.0150397675        0.0555452822
 C          2.8892719727        1.7016620186       -0.3474727178
 H          2.0483760768        1.0783942915       -0.6082231593
 H          1.6922953272        3.3989308618        0.1061694724
 H          3.6279771086        4.8291522014        0.6970282148
 H          5.9196703387        3.9168895815        0.5716118339
 H          6.2557730157        1.5483652651       -0.1525919760
 H          4.8746661947       -1.2138984041        1.2127706180
 H          3.5627392914       -0.5751730951        3.0464103051
 H          1.3055007635       -0.4699132339        4.0424716352
 H         -0.6713197257       -1.0658033489        2.6938597814
 H         -1.2764931722       -2.7293292651        0.6571357994
 C         -0.5166186643       -2.2539305264       -1.2830075399
 C         -0.1066909142       -3.6521131814       -1.6326699102
 C         -1.4761356479       -3.1605559534       -1.9912870949
 H         -1.7005971296       -2.9652924711       -3.0293212713
 H         -2.3177679231       -3.5311199296       -1.4241602260
 H          0.6146038311       -3.7923859487       -2.4238773540
 H         -0.0187373325       -4.3635630484       -0.8254566689
 H         -0.0847446340       -1.4403644033       -1.8565427765
