  62
        -98.93296303
 C          2.1996050312        1.3501912413       -0.1002936525
 C          3.0174077531        0.7944279981        0.9151411115
 C          3.9825222045       -0.2454884048        0.5157825089
 C          4.0106714390       -0.6452509320       -0.7677541578
 C          4.8990134444       -1.6729985416       -1.4220104189
 C          5.1200427522       -2.9846097806       -0.6530456967
 C          6.5348565231       -3.1287681391       -0.0893075417
 H          6.7505580284       -4.1912343444        0.0436670827
 H          7.2428834710       -2.7423223169       -0.8253916242
 C          6.7734920254       -2.4379627679        1.2521719323
 H          6.2505875780       -2.9862796756        2.0387741853
 H          7.8425213524       -2.4987912462        1.4691100604
 C          6.3423507775       -0.9715090052        1.3186845868
 H          6.9072509238       -0.4937990789        2.1219108406
 H          6.6027814853       -0.4546464696        0.3956811227
 C          4.8485137804       -0.7819403775        1.6225895522
 H          4.7272474447       -0.0635318460        2.4393224603
 H          4.4176252175       -1.7204366367        1.9835622415
 H          4.3822095238       -3.0768316199        0.1427478692
 H          4.9487159072       -3.8091885290       -1.3471191928
 H          5.8623951957       -1.2064052350       -1.6429852243
 H          4.4271781556       -1.8825722779       -2.3848302068
 O          3.1874294394       -0.1037262639       -1.7088913638
 C          2.2732658887        0.8978585999       -1.4168858532
 O          1.6126106555        1.2690699582       -2.4057647281
 O          2.9547021893        1.1681381865        2.1175600319
 C          1.2461590948        2.4553721527        0.3212185014
 C         -0.1272649522        1.9095480807        0.6168307106
 C         -0.7462505454        2.1497138970        1.8376427827
 C         -2.0032180617        1.6341801512        2.1028725662
 C         -2.6685808505        0.8744786139        1.1575286283
 C         -2.0548826260        0.6208998201       -0.0623736979
 C         -0.7941664495        1.1369798814       -0.3246151553
 H         -0.3201992756        0.9370738595       -1.2747485329
 N         -2.7247321416       -0.1425434587       -1.0360254887
 S         -3.3278169148       -1.6401693105       -0.5714638819
 O         -2.5624235897       -2.2032366107        0.5176023187
 O         -3.3904772931       -2.4218398635       -1.7870605871
 C         -4.9852264034       -1.2747608876       -0.0319904641
 C         -5.3927881832       -1.6315713549        1.2384657486
 C         -6.6888625663       -1.3377481322        1.6333799941
 C         -7.5494774833       -0.6969433330        0.7553454606
 C         -7.1254225541       -0.3480430314       -0.5184136278
 C         -5.8316352435       -0.6397367441       -0.9198116344
 H         -5.4632382110       -0.3894336591       -1.9006706453
 H         -7.7975022644        0.1500090424       -1.1985360090
 H         -8.5567992850       -0.4681075259        1.0655113920
 H         -7.0202942201       -1.6085969045        2.6229390766
 H         -4.6863199947       -2.1230788192        1.8884461455
 H         -2.2069665560       -0.2230912082       -1.9000536110
 H         -3.6475557944        0.4710033100        1.3578087538
 H         -2.4712214619        1.8267894471        3.0560678531
 H         -0.2279587897        2.7305773846        2.5863952019
 H          1.6620192371        2.8274637651        1.2708037795
 C          1.2282474363        3.6258199901       -0.6536838946
 C          0.0487767262        3.9933753452       -1.4984728254
 C          0.4270316102        4.8529311070       -0.3322560901
 H          0.8646612208        5.8217381986       -0.5187095102
 H         -0.2074044090        4.8125621042        0.5403516822
 H          0.2455140138        4.3513784135       -2.4975902125
 H         -0.8449326685        3.3948135420       -1.4215981720
 H          2.2032784655        3.7863857303       -1.1032242125
