  62
        -98.94073852
 C         -2.4400536723       -1.0516311126       -0.1699645205
 C         -3.7375443113       -1.1855757110        0.3800763531
 C         -4.7835925252       -0.3685594395       -0.2441451745
 C         -4.4740986713        0.4357829038       -1.2775874497
 C         -5.4350619089        1.3142415119       -2.0321257073
 C         -5.6938564517        2.6735974741       -1.3678602194
 C         -6.5552815183        2.6278352019       -0.1051441234
 H         -6.8365574477        3.6567535861        0.1277250573
 H         -7.4738674675        2.0782712178       -0.3129436059
 C         -5.8545810738        2.0195062757        1.1176830573
 H         -4.7751231798        2.0043320410        0.9485603639
 H         -6.0316066538        2.6515112045        1.9909177917
 C         -6.3202089426        0.6086136489        1.4775102700
 H         -7.3701270892        0.6348034164        1.7772878756
 H         -5.7345662489        0.2620702681        2.3328224679
 C         -6.1603762934       -0.4163215425        0.3470726702
 H         -6.3068501999       -1.4145930086        0.7666824498
 H         -6.9116771149       -0.2466233445       -0.4237206390
 H         -6.1986718416        3.3042902555       -2.1033641784
 H         -4.7321999142        3.1380110389       -1.1367870636
 H         -6.3808535149        0.7892311053       -2.1692062194
 H         -4.9889279921        1.4905906086       -3.0132411476
 O         -3.2152546074        0.5281618474       -1.7842273418
 C         -2.1660357299       -0.1966405061       -1.2370224182
 O         -1.0655576179       -0.0019089826       -1.7889586874
 O         -4.0070931146       -1.9513142302        1.3436613043
 C         -1.3017503050       -1.8532941632        0.4354776452
 C         -0.2472786561       -0.9097619050        0.9589615981
 C         -0.6202303031        0.0472866642        1.8998188247
 C          0.3013994555        0.9498058370        2.3921561008
 C          1.6180552325        0.9175609953        1.9644870129
 C          2.0009844627       -0.0300619744        1.0262353703
 C          1.0701858534       -0.9393296845        0.5342122317
 H          1.3815591589       -1.6668992707       -0.1990153716
 N          3.3432616474       -0.1106877710        0.6022584643
 S          4.1711142951        1.2901224038        0.1533431277
 O          4.3140745709        2.1378824684        1.3097288780
 O          3.5586864992        1.8979808833       -1.0083493980
 C          5.7511726615        0.5853995698       -0.2737688608
 C          6.0793690878        0.3905142128       -1.6014547064
 C          7.3024160509       -0.1836448745       -1.9119758914
 C          8.1691379623       -0.5539447297       -0.8949189937
 C          7.8250075151       -0.3521069167        0.4336133971
 C          6.6048890632        0.2227916936        0.7507189524
 H          6.2981493815        0.4061456351        1.7669670516
 H          8.5025538865       -0.6401360922        1.2211055863
 H          9.1199739903       -1.0004591488       -1.1397578687
 H          7.5735702452       -0.3395081540       -2.9438080953
 H          5.3769702848        0.6995812912       -2.3592007675
 H          3.4521665030       -0.7978571548       -0.1328995046
 H          2.3414259707        1.6247675332        2.3347555660
 H         -0.0040615925        1.6889523552        3.1179483685
 H         -1.6489381160        0.0771095092        2.2333631255
 H         -1.7424318567       -2.3821588555        1.2932199377
 C         -0.7850655267       -2.8765339771       -0.5529781235
 C         -0.0857702071       -4.1081324091       -0.0622325467
 C         -1.4654710688       -4.2086737118       -0.6379529051
 H         -1.5888834126       -4.6624589744       -1.6098671306
 H         -2.2916470505       -4.3869191740        0.0344877050
 H          0.7384604054       -4.4991170548       -0.6394621421
 H          0.0280389259       -4.2241306654        1.0048373246
 H         -0.4491274911       -2.4285595640       -1.4817706650
