  62
        -98.94275206
 C          0.8221951994        1.4252129102        0.0029135295
 C          1.8399853595        1.2017357305        0.9545203394
 C          2.6770310498        0.0012469907        0.7678332993
 C          2.4149126199       -0.8122418094       -0.2720483806
 C          3.1579791302       -2.0557598392       -0.6819391407
 C          4.4957571501       -1.7452736288       -1.3749477408
 C          5.3187356298       -0.6366634686       -0.7237727709
 H          6.1706848697       -0.4280853484       -1.3761914710
 H          4.7183574196        0.2735309713       -0.6735362009
 C          5.8643246601       -0.9605223184        0.6647868190
 H          6.5123927903       -1.8375634182        0.5999625190
 H          6.4809991699       -0.1143249982        0.9783577289
 C          4.8176518803       -1.2138551187        1.7513039891
 H          5.3381353304       -1.2070686685        2.7137683291
 H          4.3773837905       -2.2021854588        1.6481147592
 C          3.7220659400       -0.1558674490        1.8460215392
 H          4.1862650497        0.8306533112        1.9601762192
 H          3.1611376201       -0.3198775991        2.7752532493
 H          4.2784193899       -1.4364241889       -2.4000682608
 H          5.0849801603       -2.6628363087       -1.4154802709
 H          3.3040311105       -2.7011388191        0.1795291693
 H          2.5173476803       -2.5861889694       -1.3889203706
 O          1.4114783798       -0.5634289897       -1.1605590405
 C          0.5833344495        0.5372873301       -1.0452223405
 O         -0.3031810206        0.6142541098       -1.9156621304
 O          2.0526911394        1.9788710506        1.9271574594
 C         -0.0782615210        2.6348096300        0.1503890496
 C         -1.5270015708        2.2252299196        0.2551466997
 C         -2.5639254011        3.0142991493       -0.2296916002
 C         -3.8793157710        2.6071306489       -0.0931897300
 C         -4.1897703906        1.4026554888        0.5110672500
 C         -3.1597990203        0.6073502191        1.0004524799
 C         -1.8458632004        1.0301080095        0.8854469598
 H         -1.0602782002        0.4056723497        1.2847935497
 N         -3.4289487699       -0.6266009309        1.6153565900
 S         -2.4133397896       -1.9260497106        1.3791245999
 O         -3.2106395592       -3.0694734209        1.7773147700
 O         -1.1829542396       -1.7493240903        2.1121072598
 C         -2.0739666797       -2.0505119606       -0.3682844601
 C         -3.0095915399       -1.6435956109       -1.2971823100
 C         -2.7360301500       -1.8185788108       -2.6435557001
 C         -1.5476658299       -2.4102637905       -3.0378478902
 C         -0.6244014497       -2.8257170102       -2.0931486503
 C         -0.8861425196       -2.6413430803       -0.7460190102
 H         -0.1841925795       -2.9295909001        0.0214831797
 H          0.3025775804       -3.2824780800       -2.4016447303
 H         -1.3350567200       -2.5416335605       -4.0870766002
 H         -3.4494791502       -1.4867950510       -3.3805658500
 H         -3.9298865200       -1.1845536011       -0.9755297699
 H         -4.3983484098       -0.9087448712        1.6120528801
 H         -5.2151640005        1.0793285886        0.6067966201
 H         -4.6737861012        3.2311089387       -0.4729140500
 H         -2.3402474414        3.9495935093       -0.7160521002
 H          0.2138297090        3.1044817901        1.1025946695
 C          0.1765733787        3.6186249100       -0.9752287005
 C          0.0836724283        5.0954199100       -0.7358134405
 C          1.4215448084        4.4517866803       -0.9365105706
 H          1.9518169983        4.6324352205       -1.8594275407
 H          2.0670776286        4.3331864605       -0.0782548107
 H         -0.3037179320        5.7223405499       -1.5248533005
 H         -0.1708762817        5.4272960499        0.2595508895
 H         -0.1382677913        3.2331150499       -1.9385234505
