  62
        -98.94614700
 C          1.0241385599        1.5658656300       -0.1544182788
 C          1.1607701300        0.1775367500       -0.4030822791
 C          2.2415670797       -0.4979530402        0.3281423911
 C          2.9647874594        0.1736478695        1.2400635216
 C          4.0683889790       -0.3922218607        2.0922164618
 C          5.4368462793       -0.4303812006        1.3977425023
 C          5.5825161197       -1.4890047703        0.3038097321
 H          6.6444780398       -1.5498116002        0.0576262525
 H          5.2836850795       -2.4601425804        0.6995623017
 C          4.7942637002       -1.1879222199       -0.9785421681
 H          4.5119371002       -0.1327824599       -0.9924255379
 H          5.4336349205       -1.3601980796       -1.8472092379
 C          3.5375500702       -2.0384096498       -1.1637332988
 H          3.8199798402       -3.0869884098       -1.2796651090
 H          3.0393029906       -1.7179999595       -2.0818233389
 C          2.5260100198       -1.9289625801       -0.0149796192
 H          1.5856002499       -2.3802347400       -0.3387836197
 H          2.8890180194       -2.4649744704        0.8621048808
 H          5.6423970595        0.5577196795        0.9795006827
 H          6.1865368490       -0.6277304608        2.1675764226
 H          4.1444105887        0.2535725890        2.9699263820
 H          3.7967007689       -1.3949452808        2.4241329014
 O          2.7518539693        1.4891697595        1.5110435719
 C          1.8055218896        2.2134249297        0.8069885917
 O          1.7537021295        3.4207913996        1.1223131220
 H         -1.4372051301        0.2459986701       -0.2630380901
 C         -1.9267068302        1.1441593700        0.0750210500
 C         -1.3318002801        2.3764611800       -0.1512501994
 C         -1.9820939402        3.5234945399        0.2879773706
 C         -3.1937833505        3.4333887098        0.9501087301
 C         -3.7662819006        2.2002169997        1.2060907496
 C         -3.1215322404        1.0483816498        0.7707189995
 N         -3.6596377106       -0.2253753002        1.0098545889
 S         -2.6226336007       -1.4848535904        1.3967982090
 O         -3.4545136610       -2.4227297806        2.1270747284
 O         -1.4527583410       -1.0158843306        2.1054731095
 C         -2.1746572702       -2.2409590600       -0.1504811511
 C         -1.1226923702       -3.1336595800       -0.1333055409
 C         -0.7702533798       -3.7806025897       -1.3061839610
 C         -1.4741485693       -3.5237996893       -2.4716197012
 C         -2.5303230093       -2.6271801693       -2.4709133113
 C         -2.8908423897       -1.9797182496       -1.2997991013
 H         -3.7000408197       -1.2686544096       -1.2717398214
 H         -3.0717705889       -2.4238269290       -3.3811436315
 H         -1.1920654190       -4.0209644991       -3.3864645412
 H          0.0557534502       -4.4744460097       -1.3085230309
 H         -0.5939368005       -3.2911155103        0.7942871892
 H         -4.4926395808       -0.2422144804        1.5802545286
 H         -4.6993202008        2.1271935696        1.7440260492
 H         -3.6895650806        4.3311333897        1.2871240902
 H         -1.5229957601        4.4876021000        0.1254713211
 C          0.0030016502        2.4520921402       -0.8524580689
 H          0.3773996302        3.4798901702       -0.7477457685
 C         -0.1533539692        2.1445459806       -2.3293502591
 C         -0.6772874889        3.2089278009       -3.2436367990
 C          0.7627118412        2.7994027509       -3.3169272685
 H          1.0968728315        2.2251383811       -4.1677248586
 H          1.5074663010        3.4812520808       -2.9318639580
 H         -1.3357119086        2.9172832411       -4.0471160193
 H         -0.9078344290        4.1716872308       -2.8132338988
 H         -0.4457198492        1.1211924407       -2.5226981695
 O          0.4380721003       -0.4887109697       -1.1903364896
