  62
        -98.94131793
 C         -1.7832263305       -0.6658764717       -0.0605267956
 C         -2.9610097133       -1.1174746167        0.5929422324
 C         -4.2359273837       -0.6917942408        0.0069193130
 C         -4.2371600520        0.0960727922       -1.0830306256
 C         -5.4532159519        0.5967082963       -1.8139412234
 C         -6.0721216528        1.8614882834       -1.2033881077
 C         -6.8129877034        1.6503988970        0.1176363640
 H         -7.3774481877        2.5633904918        0.3174902583
 H         -7.5344833087        0.8407667956        0.0029158430
 C         -5.8991025979        1.3629537390        1.3171428219
 H         -6.2114761405        1.9737723150        2.1672118673
 H         -4.8751675746        1.6558887983        1.0731199576
 C         -5.9008078449       -0.0937133762        1.7811084780
 H         -5.1934322694       -0.1903879835        2.6085686687
 H         -6.8928316896       -0.3582844029        2.1538242526
 C         -5.5015367706       -1.1030086235        0.6967167327
 H         -5.3216760049       -2.0680962712        1.1767438953
 H         -6.3088821183       -1.2169991911       -0.0264684267
 H         -5.2832355686        2.6045210302       -1.0644624140
 H         -6.7803252787        2.2619555713       -1.9325111338
 H         -6.2046169134       -0.1922957436       -1.8584984458
 H         -5.1310591220        0.8283279410       -2.8315535427
 O         -3.0909747097        0.5234336277       -1.6715118575
 C         -1.8387102666        0.1761348869       -1.1729707523
 O         -0.8971970411        0.6748059041       -1.8165444244
 O         -2.9456301212       -1.8469498479        1.6191007127
 C         -0.4566229425       -1.0869776102        0.5486598837
 C          0.4308832361        0.1094512341        0.7676064216
 C          0.2634149269        0.9006510491        1.8995302047
 C          1.0698363896        2.0025071012        2.1219493359
 C          2.0567396746        2.3435194094        1.2131317795
 C          2.2176824591        1.5697862205        0.0733782578
 C          1.4216099304        0.4537515347       -0.1388735231
 H          1.5543151717       -0.1354372121       -1.0329827476
 N          3.2431216582        1.9046689679       -0.8468087190
 S          4.7658305155        1.4242405280       -0.3407101866
 O          5.1085101519        2.1617689589        0.8481517149
 O          5.6435698748        1.5890504751       -1.4769819024
 C          4.5712010239       -0.3064558663        0.0464110657
 C          4.1246838343       -0.6638004463        1.3030276888
 C          3.8686100992       -1.9997861085        1.5668444797
 C          4.0581168188       -2.9490241028        0.5739050526
 C          4.5088717909       -2.5739575527       -0.6826344689
 C          4.7618342017       -1.2389343821       -0.9536406057
 H          5.1127311005       -0.9042185703       -1.9168829281
 H          4.6566423971       -3.3154515984       -1.4514672545
 H          3.8520978072       -3.9876508300        0.7808782936
 H          3.5138468958       -2.2937879901        2.5417330750
 H          3.9895395873        0.1035381974        2.0477463458
 H          3.0673203382        1.5322516894       -1.7701027871
 H          2.7070950486        3.1883466860        1.3721100928
 H          0.9298478009        2.6010755167        3.0093394465
 H         -0.5107843179        0.6412852262        2.6084702252
 H         -0.7332920837       -1.4908427471        1.5356981718
 C          0.2645106603       -2.2065640084       -0.1886011077
 C         -0.5016192491       -3.3571417150       -0.7667567466
 C          0.2010677411       -2.3935675757       -1.6734767541
 H          1.0951361553       -2.7271384924       -2.1802221556
 H         -0.3922221833       -1.7009177845       -2.2495314714
 H         -0.0995685559       -4.3528575229       -0.6588786655
 H         -1.5797242114       -3.3112758971       -0.7135340120
 H          1.2129836616       -2.4440633576        0.2843253810
