  62
        -98.94091175
 C         -2.4004107659       -1.0801088887       -0.2425226689
 C         -3.7247289277       -1.1483661213        0.2538108666
 C         -4.6906018201       -0.2285962907       -0.3604364736
 C         -4.2759418949        0.6091090168       -1.3285847633
 C         -5.1404245056        1.6363299996       -1.9993882106
 C         -5.0744728539        2.9837425849       -1.2668409786
 C         -5.2861597217        2.8773704972        0.2434148224
 H         -4.4504850697        2.3268533550        0.6821718429
 H         -5.2490636420        3.8909045994        0.6487941003
 C         -6.6059674374        2.2097539481        0.6545459527
 H         -7.0610344864        2.7977690533        1.4543209515
 H         -7.3006985666        2.2138356796       -0.1860808304
 C         -6.4566425910        0.7814484345        1.1814836308
 H         -7.4036922540        0.4882200759        1.6422135536
 H         -5.6922155588        0.7575208464        1.9623194720
 C         -6.1091132198       -0.2831999525        0.1334196281
 H         -6.2235598882       -1.2631473594        0.6059232113
 H         -6.8100800733       -0.2201195250       -0.7012567148
 H         -5.8279443876        3.6469176007       -1.6957092511
 H         -4.0913145738        3.4264221818       -1.4435221146
 H         -6.1671329672        1.2765637929       -2.0275584785
 H         -4.7833782127        1.7713757092       -3.0216993659
 O         -2.9961373742        0.6455448252       -1.7800234146
 C         -2.0244309495       -0.1900357431       -1.2482988588
 O         -0.8949265993       -0.0491797849       -1.7553696728
 O         -4.0810856622       -1.9413530248        1.1662010966
 C         -1.3495848791       -1.9979183519        0.3580987351
 C         -0.2809772832       -1.1569472144        1.0112126359
 C         -0.6367960809       -0.3533234779        2.0920314945
 C          0.2947063969        0.4645261624        2.7006186390
 C          1.6030917303        0.4990007020        2.2485732824
 C          1.9674187181       -0.2942553725        1.1702903886
 C          1.0278301113       -1.1194906513        0.5615638347
 H          1.3228029793       -1.7222258132       -0.2827248320
 N          3.2988600339       -0.2959234999        0.7121770301
 S          4.1253174027        1.1733062219        0.6206460105
 O          4.5086097808        1.5654392096        1.9542857318
 O          3.3580793651        2.1454713618       -0.1262680983
 C          5.5691012437        0.6723452137       -0.2954312771
 C          5.5906393906        0.8347054608       -1.6675732614
 C          6.7067729934        0.4149161357       -2.3743036341
 C          7.7741297269       -0.1600763629       -1.7008934488
 C          7.7374488124       -0.3163706746       -0.3232013536
 C          6.6254381852        0.1025126427        0.3896491196
 H          6.5551381192        0.0101545595        1.4607141717
 H          8.5704202019       -0.7617300409        0.1963908241
 H          8.6408642932       -0.4859890917       -2.2539606166
 H          6.7387583722        0.5375126331       -3.4450283236
 H          4.7410686481        1.2931434790       -2.1487994256
 H          3.3898728470       -0.7997904869       -0.1601557856
 H          2.3367456124        1.1404904697        2.7087968609
 H          0.0033752058        1.0850597563        3.5351623411
 H         -1.6603068584       -0.3736885058        2.4416496313
 H         -1.8705985240       -2.5595328272        1.1465448226
 C         -0.8296826331       -2.9758281149       -0.6734358761
 C         -0.1642658726       -4.2434105105       -0.2296866977
 C         -1.5288422634       -4.2894751185       -0.8469067859
 H         -1.6320334464       -4.6894026826       -1.8444743067
 H         -2.3757544315       -4.4900387525       -0.2073029867
 H          0.6701095024       -4.6174174633       -0.8033522151
 H         -0.0817111622       -4.4158287181        0.8326207248
 H         -0.4607981551       -2.4879172498       -1.5685186301
