  62
        -98.93492842
 C         -2.6797019479       -0.2913801945       -0.2495161713
 C         -2.2113219811       -1.0857556344        0.8234371871
 C         -1.5865869803       -2.3785203440        0.4642525258
 C         -1.4734737098       -2.7300258048       -0.8284929074
 C         -0.9074773526       -3.9685509869       -1.4938455702
 C         -0.1848135770       -5.0319709188       -0.6731228068
 C          1.1965071319       -4.6108547177       -0.1679110917
 H          1.5482892425       -5.3601181499        0.5444527613
 H          1.8849698758       -4.6072401081       -1.0166066770
 C          1.2741418090       -3.2317992039        0.4831489472
 H          0.9651016736       -2.4603973414       -0.2258230343
 H          2.3222321059       -3.0290366460        0.7246770029
 C          0.4716386622       -3.0625722285        1.7707668010
 H          0.6926060606       -2.0630043272        2.1566147534
 H          0.8021273748       -3.7938024693        2.5124810619
 C         -1.0520691935       -3.1781584874        1.6185892326
 H         -1.3622179274       -4.2182455286        1.5490728618
 H         -1.5105043468       -2.7561361254        2.5184103047
 H         -0.0455552881       -5.8947102466       -1.3302273138
 H         -0.8158632948       -5.3606998866        0.1474542053
 H         -0.2384047551       -3.6047014460       -2.2805646648
 H         -1.7559614909       -4.4377869983       -2.0041394464
 O         -1.9552395931       -1.9348874709       -1.8304662167
 C         -2.5230615550       -0.7044698881       -1.5735199487
 O         -2.8729990168       -0.0788608991       -2.5964864176
 O         -2.3105685710       -0.7672204489        2.0365178717
 C         -3.2418999499        1.1147463751       -0.0967917121
 C         -2.1411611412        2.1004456512       -0.4050472150
 C         -2.3606367978        3.2136838112       -1.2071666510
 C         -1.3160618127        4.0620365120       -1.5310466840
 C         -0.0314071296        3.7987488547       -1.0911898548
 C          0.1966814124        2.6889251866       -0.2851425887
 C         -0.8611625492        1.8703054504        0.0770722246
 H         -0.6689634425        1.0175771121        0.7110239905
 N          1.4848938843        2.3648648066        0.1722719049
 S          1.8519575743        0.7117483561        0.2651017953
 O          1.2716681532        0.0139943854       -0.8594191993
 O          1.5051555428        0.2443956707        1.5821256886
 C          3.6282194162        0.7618626539        0.1092956344
 C          4.3865090818        1.0475865444        1.2291387733
 C          5.7648820274        1.1187125866        1.1043664306
 C          6.3588936512        0.9041689082       -0.1306059266
 C          5.5853240796        0.6151258212       -1.2447420253
 C          4.2059162788        0.5443576148       -1.1270454101
 H          3.5636238929        0.3143640067       -1.9622776009
 H          6.0494838498        0.4444387108       -2.2027120757
 H          7.4318146958        0.9593039529       -0.2250408821
 H          6.3695503659        1.3396295862        1.9690074529
 H          3.8798337486        1.1956623697        2.1685061396
 H          2.2132010659        2.8885202836       -0.2943551654
 H          0.7897663376        4.4395932173       -1.3742522360
 H         -1.4987849264        4.9224422005       -2.1567587741
 H         -3.3499472014        3.3955839485       -1.6006860574
 H         -4.0033832183        1.2204340015       -0.8878360358
 C         -3.9274374320        1.3831302673        1.2326670687
 C         -3.2899817784        2.1733929557        2.3313839241
 C         -4.4275052181        2.7607419650        1.5544114956
 H         -5.3874208750        2.8589108089        2.0380377371
 H         -4.1981152997        3.5516515730        0.8566865841
 H         -3.4591690316        1.8448349130        3.3452139249
 H         -2.2973159599        2.5629440633        2.1642779855
 H         -4.5535244879        0.5526658168        1.5398024576
