  62
        -98.94518337
 C         -2.0997580796       -1.4715363906       -0.0223366198
 C         -1.8892988744       -0.4578776949       -0.9882987618
 C         -2.8055365135        0.6909610560       -0.9212588598
 C         -3.7469409759        0.7347451799        0.0384394731
 C         -4.6900683215        1.8794178260        0.2659164175
 C         -4.0971912101        2.8999771092        1.2480697140
 C         -2.6693910837        3.3299577835        0.9096480575
 H         -2.3741560339        4.0768259146        1.6495930818
 H         -1.9999999313        2.4748625720        1.0290850123
 C         -2.5011524437        3.9097734333       -0.5015505250
 H         -3.4732574697        4.2028779684       -0.8997002409
 H         -1.8928544478        4.8143959167       -0.4411752159
 C         -1.8099168779        2.9704585785       -1.4911599963
 H         -1.5465202429        3.5478164935       -2.3812229728
 H         -0.8822123771        2.5939664448       -1.0540604691
 C         -2.6387762922        1.7676357155       -1.9567773786
 H         -3.6121910476        2.1052974496       -2.3185431804
 H         -2.1055668377        1.3012951744       -2.7903396941
 H         -4.0944510277        2.4570040827        2.2467017246
 H         -4.7483363990        3.7759019443        1.2675818173
 H         -4.9085033401        2.3594509300       -0.6860493681
 H         -5.6173972170        1.4834145376        0.6832851691
 O         -3.9126366058       -0.2523305889        0.9552822339
 C         -3.1004855882       -1.3715985224        0.9490017367
 O         -3.3638548606       -2.1997706414        1.8436927511
 H          0.9783704624       -1.8687268265       -1.3350873692
 C          1.1503812609       -1.9259428368       -0.2720753895
 C          0.1290833648       -2.3470984612        0.5659278477
 C          0.3595240160       -2.3719756894        1.9381566058
 C          1.5891031926       -2.0050154897        2.4532082590
 C          2.6106617863       -1.5966160391        1.6133666228
 C          2.3817545444       -1.5416789791        0.2445371907
 N          3.4035723067       -1.1246087373       -0.6263563285
 S          4.3092564625        0.2387634062       -0.2904183203
 O          5.0342135806        0.5131276915       -1.5095688315
 O          5.1085217666        0.0012146347        0.8857459152
 C          3.1408379160        1.5478273367        0.0267418719
 C          2.6718325536        1.7499190240        1.3092663902
 C          1.7410233075        2.7525541351        1.5308210528
 C          1.3038541958        3.5364869352        0.4748961605
 C          1.7888104632        3.3244640527       -0.8069229949
 C          2.7099561835        2.3160720497       -1.0366896986
 H          3.1145920839        2.1218884618       -2.0169437378
 H          1.4491191177        3.9378741785       -1.6259586458
 H          0.5808085569        4.3169965466        0.6517259353
 H          1.3614065653        2.9191630896        2.5262347539
 H          3.0456275027        1.1338573299        2.1099105969
 H          3.1242461123       -1.1247684059       -1.5967339268
 H          3.5790364289       -1.3207216823        1.9982087345
 H          1.7576198876       -2.0419343479        3.5189774067
 H         -0.4417116907       -2.6774858134        2.5965595726
 C         -1.2338399905       -2.7213223797        0.0352407337
 H         -1.7108484364       -3.3782710475        0.7744550449
 C         -1.1828742634       -3.4496505697       -1.2922308710
 C         -0.6694036620       -4.8566152429       -1.3295919776
 C         -2.1281241395       -4.5848531144       -1.5395034109
 H         -2.5390499376       -4.7064178731       -2.5306109788
 H         -2.8157654169       -4.8456079880       -0.7480343201
 H         -0.0766096994       -5.1683254601       -2.1759430886
 H         -0.3660518502       -5.3008317555       -0.3934635801
 H         -0.9578803321       -2.8068989685       -2.1332326918
 O         -0.9934615695       -0.4954973549       -1.8728298021
