  62
        -98.93690603
 C          1.2522309191        1.1777149336        0.2946313985
 C          1.8578233340        0.3471824715        1.2697443685
 C          2.6604182439       -0.7725330216        0.7632107015
 C          2.7331854241       -0.9768492204       -0.5647389963
 C          3.5649684778       -2.0395664388       -1.2218490769
 C          4.9694063502       -1.5161985226       -1.5544725712
 C          5.6602920500       -0.8121876837       -0.3866096508
 H          6.6538120383       -0.5139867509       -0.7283770911
 H          5.1148865281        0.1037810997       -0.1482008388
 C          5.7922720364       -1.6666994733        0.8818998638
 H          5.6598509016       -2.7207569408        0.6350023785
 H          6.8035096436       -1.5522056341        1.2780233749
 C          4.8283328851       -1.2850122065        2.0069458374
 H          4.8948698557       -0.2108172951        2.1977274726
 H          5.1480889262       -1.7984665916        2.9178008474
 C          3.3551596113       -1.6426791514        1.7725630435
 H          3.2739181714       -2.6966039106        1.4978657450
 H          2.8231185043       -1.4922234935        2.7166690286
 H          5.5811273044       -2.3567149963       -1.8872795787
 H          4.8880624022       -0.8066099139       -2.3808920838
 H          3.6366237944       -2.9018395540       -0.5615221984
 H          3.0746214041       -2.3424229051       -2.1481413992
 O          2.0833398849       -0.2029643775       -1.4663402803
 C          1.3234729125        0.8911725619       -1.0706890332
 O          0.7818410488        1.4916853779       -2.0118447638
 O          1.7318959776        0.5339515696        2.5115630503
 C          0.4373605978        2.3665210573        0.7924850775
 C         -0.9927764284        2.1550092529        0.3655783849
 C         -1.6207911086        2.7007709875       -0.7466395163
 C         -2.9205314829        2.3444524749       -1.0690429688
 C         -3.6218365465        1.4271660623       -0.3098623867
 C         -2.9990672403        0.8589081664        0.7933873639
 C         -1.7076297564        1.2303634536        1.1243279434
 H         -1.2266640304        0.7737704821        1.9806710187
 N         -3.6796370457       -0.1273376747        1.5431008680
 S         -4.0814868290       -1.4962077053        0.6597941166
 O         -5.2590135531       -1.2220095012       -0.1234776740
 O         -4.1967481373       -2.5649972236        1.6262487039
 C         -2.6817792735       -1.7613255619       -0.4146559294
 C         -2.7621855185       -1.4038148085       -1.7449073446
 C         -1.6421285640       -1.5510794773       -2.5465888590
 C         -0.4672281073       -2.0492399123       -2.0069260360
 C         -0.4016453113       -2.4035526146       -0.6683499209
 C         -1.5166328421       -2.2528991652        0.1391304696
 H         -1.4988606733       -2.5210146090        1.1838435615
 H          0.5175339466       -2.7820718021       -0.2491341378
 H          0.4057936370       -2.1521688109       -2.6316274382
 H         -1.6833698622       -1.2689973208       -3.5861436718
 H         -3.6950905982       -1.0229752427       -2.1267561864
 H         -3.1769059873       -0.4005680535        2.3763561749
 H         -4.6259696076        1.1261136220       -0.5609483639
 H         -3.3883511574        2.7835768470       -1.9370501667
 H         -1.0974979686        3.3814263638       -1.3926980478
 H          0.4507161029        2.2518252900        1.8881770067
 C          1.1476167312        3.6861914724        0.5304523119
 C          1.2888586634        4.3689139361       -0.7952626476
 C          0.4430597064        4.9850819328        0.2786559943
 H          0.8164085459        5.8690315295        0.7743295675
 H         -0.6293426668        4.9666405820        0.1684077091
 H          2.2430346762        4.8271325275       -1.0154354570
 H          0.8287755375        3.9173243248       -1.6580047984
 H          2.0287011231        3.7465535003        1.1661007011
