  62
        -98.93998854
 C          1.7287535814        1.2182020912       -0.6398050624
 C          1.5452698727        0.1875658296        0.3164895954
 C          2.7660805536       -0.2848062458        0.9926161944
 C          3.9485962079        0.2886618477        0.7098632337
 C          5.2695351107       -0.1327443601        1.2840143427
 C          5.9485549913       -1.1906515929        0.4027896219
 C          5.0334358127       -2.3515676817        0.0132653307
 H          4.2376646653       -1.9761813868       -0.6339429691
 H          5.6283899530       -3.0490088651       -0.5802357279
 C          4.4093932421       -3.0956848411        1.2022143813
 H          4.4905962845       -4.1701341007        1.0248288267
 H          4.9679808702       -2.8751369821        2.1125666559
 C          2.9273054412       -2.7931858395        1.4324442406
 H          2.5363115248       -3.5249246646        2.1445181655
 H          2.3783610884       -2.9229532873        0.4964183734
 C          2.6105266494       -1.3991694053        1.9891084741
 H          1.5580178445       -1.3887899859        2.2899357512
 H          3.2189830189       -1.2106784018        2.8762659462
 H          6.8203620829       -1.5747298811        0.9355788033
 H          6.2962288577       -0.7067132844       -0.5128709923
 H          5.1142862101       -0.5252296602        2.2872423672
 H          5.9140472120        0.7459667809        1.3437840840
 O          4.0793144833        1.3059250444       -0.1791401505
 C          2.9818560066        1.7950466640       -0.8679147962
 O          3.2470350845        2.7364743750       -1.6420699869
 O          0.4346645725       -0.3298629144        0.5958791483
 C          0.5664663103        1.8223696514       -1.4114590942
 C         -0.5249890234        2.2362693706       -0.4559720478
 C         -0.3342418518        3.3864727194        0.3050688513
 C         -1.3052331576        3.8226602979        1.1851541876
 C         -2.4822162204        3.1100216822        1.3296299896
 C         -2.6765532031        1.9508135045        0.5895720355
 C         -1.7043147007        1.5224214814       -0.3050194947
 H         -1.8640735078        0.6181370961       -0.8687104069
 N         -3.8719540132        1.2127044770        0.7134498553
 S         -3.7636824737       -0.3553676588        1.3222417408
 O         -5.0989398372       -0.6294518103        1.8177740221
 O         -2.7020280522       -0.4734456194        2.2934658551
 C         -3.4741848932       -1.3858686945       -0.0970151572
 C         -4.5197391031       -1.5579766764       -0.9838018188
 C         -4.3404602175       -2.3898893232       -2.0764382144
 C         -3.1280283957       -3.0397569218       -2.2551296426
 C         -2.0899385840       -2.8540634237       -1.3553008892
 C         -2.2572782857       -2.0144078815       -0.2640275891
 H         -1.4628371287       -1.8171993149        0.4382751482
 H         -1.1460137893       -3.3560547794       -1.4979699494
 H         -2.9893197445       -3.6944255396       -3.1014367625
 H         -5.1436990022       -2.5335416043       -2.7811017282
 H         -5.4497123695       -1.0484512379       -0.7937436820
 H         -4.5876715547        1.7046879609        1.2320234291
 H         -3.2452413943        3.4439197147        2.0175665027
 H         -1.1456753615        4.7199685158        1.7641565546
 H          0.5907345725        3.9366397474        0.1944568419
 H          0.9786444778        2.7431996605       -1.8554117855
 C          0.0603542285        0.9796869594       -2.5720608252
 C          1.0368386317        0.2902403804       -3.4776750050
 C          0.1274972427       -0.5152751268       -2.6018448242
 H         -0.6901732966       -1.0484076410       -3.0641200367
 H          0.5468127319       -1.0187831533       -1.7462942320
 H          0.8541306518        0.3034235552       -4.5414289037
 H          2.0828363928        0.3511567799       -3.2127934341
 H         -0.8011100047        1.4360726231       -3.0500328794
