  62
        -98.94554959
 C         -2.4985403494       -0.6383054916        0.1099815604
 C         -1.7952288798        0.1680253680       -0.8184338703
 C         -2.0477654806        1.6111012479       -0.7187191016
 C         -2.9449752709        2.0770077782        0.1689472879
 C         -3.3164977418        3.5205873282        0.3745382466
 C         -2.3752303023        4.2737968395        1.3250262261
 C         -0.9856674424        4.5762887598        0.7619261859
 H         -1.0864440426        5.0756127289       -0.2018999845
 H         -0.5095579629        5.2809220307        1.4465423954
 C         -0.0805428017        3.3446142902        0.6127505171
 H         -0.4834519913        2.5247538305        1.2130944278
 H          0.9128794282        3.5695795911        1.0081825670
 C          0.1038657087        2.8634635690       -0.8267633025
 H          0.6360947384        3.6248951688       -1.3996336531
 H          0.7219205892        1.9620619794       -0.8098181416
 C         -1.2036890810        2.5243892577       -1.5541371423
 H         -1.7478990915        3.4346621171       -1.8025181231
 H         -0.9540656106        1.9968849870       -2.4773263218
 H         -2.2767393820        3.6972618804        2.2481045666
 H         -2.8560150828        5.2218160195        1.5768943952
 H         -3.3509339219        4.0319553573       -0.5874841938
 H         -4.3188041118        3.5262608080        0.8082559065
 O         -3.6464771806        1.2601151885        1.0002659486
 C         -3.4116378298       -0.1066935613        1.0192326498
 O         -4.0684764595       -0.7298145709        1.8789873303
 H         -0.3573242395       -0.7179560793        1.4076005306
 C          0.0510082211       -1.6107119894        0.9495890815
 C         -0.7926300484       -2.4610294005        0.2467680021
 C         -0.2477348977       -3.6060678407       -0.3222014168
 C          1.1026233224       -3.8814581598       -0.1940752864
 C          1.9417104419       -3.0220446188        0.4907894929
 C          1.4101770312       -1.8685404186        1.0562608818
 N          2.2397209806       -0.9772924975        1.7598392611
 S          3.7047779404       -0.4482670972        1.1576603308
 O          4.5587151310       -1.5873677569        0.9296619419
 O          4.1730140597        0.5156863039        2.1270255600
 C          3.3936265801        0.3804294713       -0.3932275899
 C          2.9112519606       -0.3379339400       -1.4698102594
 C          2.6895607103        0.3223994489       -2.6679530300
 C          2.9665136996        1.6762499789       -2.7756981911
 C          3.4574528391        2.3818936802       -1.6880026817
 C          3.6665783293        1.7313759013       -0.4828637411
 H          4.0412063290        2.2406045223        0.3903850685
 H          3.6727880785        3.4348512802       -1.7727157726
 H          2.7953869894        2.1831671380       -3.7122037416
 H          2.2958336607       -0.2251739921       -3.5088814395
 H          2.7095462612       -1.3911417800       -1.3652379085
 H          1.7431813201       -0.2018797374        2.1729770704
 H          2.9977186420       -3.2173611281        0.5842188832
 H          1.5101876430       -4.7772446800       -0.6377856956
 H         -0.8824417173       -4.2842631116       -0.8686404363
 C         -2.2636807586       -2.1354926914        0.1348981917
 H         -2.7691630184       -2.5122991409        1.0368890320
 C         -2.9082991381       -2.7711312229       -1.0830733378
 C         -3.5462682873       -4.1242041932       -0.9953434167
 C         -4.4004638580       -2.8999570737       -1.1231166378
 H         -4.9103853880       -2.7178333549       -2.0571972681
 H         -4.9475357383       -2.5625053333       -0.2544865382
 H         -3.5283136772       -4.6276156723       -0.0403273862
 H         -3.4727870369       -4.7854170439       -1.8458378861
 H         -2.4050765981       -2.5000313434       -2.0042674580
 O         -0.9903393694       -0.2861205423       -1.6707505898
