  62
        -98.93560497
 C          2.4923683297        1.3087711008        0.4369389790
 C          2.4144926597        0.4586993005       -0.6920542107
 C          3.2882614898       -0.7319906594       -0.6807221705
 C          4.0773138300       -0.9715693890        0.3823608195
 C          5.0951568902       -2.0618299687        0.6453475297
 C          5.1199963403       -3.3286123190       -0.2059830799
 C          3.8965174404       -4.2310568091       -0.0479185995
 H          3.9753570004       -5.0442079993       -0.7725726993
 H          3.9163615406       -4.6729546888        0.9514996606
 C          2.5429632903       -3.5449458694       -0.2192831796
 H          2.4072349103       -2.7977678991        0.5660637002
 H          1.7625392004       -4.2983334794       -0.0787403593
 C          2.3085656800       -2.8851596498       -1.5771441197
 H          1.2588442900       -2.5777510599       -1.6160626497
 H          2.4706799300       -3.6153664200       -2.3725366895
 C          3.1678146198       -1.6422267597       -1.8684386402
 H          4.1498453998       -1.9190254197       -2.2445082202
 H          2.6654928997       -1.0646198200       -2.6499620703
 H          5.9944627004       -3.9010942288        0.1148443401
 H          5.2742807401       -3.0775833993       -1.2511672400
 H          4.9673586503       -2.3395472885        1.6964285998
 H          6.0751188301       -1.5772887186        0.5717944095
 O          4.0919926400       -0.1388587886        1.4649715793
 C          3.2968363498        0.9916881913        1.5319001690
 O          3.3876557999        1.6162988616        2.6078842588
 O          1.6630803095        0.6720658301       -1.6775771407
 C          1.6327937795        2.5554869207        0.5613944888
 C          0.2158320795        2.2405167904        0.1465814790
 C         -0.4650509907        2.9084988700       -0.8617353011
 C         -1.7599833307        2.5457022398       -1.1894927508
 C         -2.4035935505        1.5201860299       -0.5220374805
 C         -1.7296203403        0.8411823403        0.4848031497
 C         -0.4361101503        1.2117707205        0.8161249694
 H          0.0917994799        0.6778812808        1.5984479995
 N         -2.3749189900       -0.1973290996        1.1796189300
 S         -3.1687607400       -1.3840000500        0.2957383005
 O         -3.2000469297       -2.5382322998        1.1687832108
 O         -2.5727324801       -1.5797255903       -1.0049345796
 C         -4.8216603301       -0.7433051203        0.1263438405
 C         -5.4963526900       -0.3722485201        1.2730148504
 C         -6.7854151001        0.1233198097        1.1601293904
 C         -7.3759908402        0.2358614093       -0.0898457195
 C         -6.6869584903       -0.1449285809       -1.2310702895
 C         -5.3965045902       -0.6404989407       -1.1251212195
 H         -4.8196668703       -0.9426495909       -1.9848788895
 H         -7.1475609904       -0.0572912213       -2.2019313195
 H         -8.3791446903        0.6227161991       -0.1751575995
 H         -7.3241928700        0.4204412699        2.0454249704
 H         -5.0025714499       -0.4781988797        2.2244516004
 H         -1.8039410099       -0.6177403893        1.8986519801
 H         -3.4086053405        1.2304332196       -0.7818159203
 H         -2.2749232309        3.0674908095       -1.9817413809
 H          0.0269830591        3.6934463499       -1.4117295414
 H          1.6211563096        2.7828173211        1.6407093687
 C          2.2086089893        3.7819528206       -0.1303686417
 C          3.6875802692        3.9376904508       -0.3177967019
 C          2.8001958991        3.7239782703       -1.5053295217
 H          2.6295596389        4.5570551201       -2.1715412419
 H          2.8197834592        2.7661265002       -2.0001145514
 H          4.1226814091        4.9141807709       -0.1667033022
 H          4.3216821494        3.1236253110        0.0028511583
 H          1.6627836492        4.6839655706        0.1284032581
