  62
        -98.94453290
 C          1.2564060353        1.7774750137       -0.6904639361
 C          2.4445615144        1.6582338005        0.0769310105
 C          3.3833698540        0.6089810532       -0.3280097683
 C          3.1105953310       -0.1442966697       -1.4081998303
 C          3.9458460015       -1.2798688507       -1.9320206205
 C          3.6546700474       -2.6123995533       -1.2272986958
 C          4.2098565390       -2.7267648367        0.1931654835
 H          4.1441742237       -3.7789625161        0.4775266375
 H          5.2655992264       -2.4517585432        0.1955868929
 C          3.4528620703       -1.8903183142        1.2347265175
 H          2.4703875672       -1.6195936802        0.8379931810
 H          3.2718933996       -2.4978089993        2.1251567895
 C          4.1850110723       -0.6272829927        1.6915311731
 H          5.0961012948       -0.9079575555        2.2253926929
 H          3.5354034496       -0.0918301436        2.3890262778
 C          4.5599524006        0.3382018415        0.5593316239
 H          4.8668641545        1.2870900324        1.0063533980
 H          5.3914970271       -0.0631708286       -0.0193456915
 H          2.5722125326       -2.7662209248       -1.2026655960
 H          4.0930307256       -3.4088698527       -1.8336451649
 H          3.7013979104       -1.3880382349       -2.9909658368
 H          5.0049809099       -1.0377190310       -1.8402924201
 O          2.0069137309        0.0548434321       -2.1695474352
 C          1.0157132736        0.9585457398       -1.7941075558
 O          0.0193406042        0.9281664161       -2.5397921549
 O          2.6967348055        2.3940711506        1.0693294858
 C          0.2117688341        2.7290047700       -0.1322921435
 C         -0.4759067994        2.0636213695        1.0376290055
 C         -0.8300673360        2.7709123992        2.1801000777
 C         -1.4330277674        2.1222334366        3.2441408375
 C         -1.6778663910        0.7615777276        3.1989196657
 C         -1.3107737788        0.0409705424        2.0662543341
 C         -0.7374220149        0.7025931819        0.9917428389
 H         -0.4460231498        0.1368991761        0.1227116645
 N         -1.4775305639       -1.3440861691        2.0132629764
 S         -1.4491608265       -2.2494507666        0.6153610058
 O         -1.7892336495       -3.5809513359        1.0710797874
 O         -0.1817441496       -2.1171493295       -0.0572466624
 C         -2.7961443309       -1.6222842434       -0.3702069335
 C         -2.5748318149       -0.8910116060       -1.5180370092
 C         -3.6694443271       -0.4237421648       -2.2313614986
 C         -4.9546868263       -0.6875806291       -1.7878339187
 C         -5.1602752275       -1.4258817243       -0.6312984262
 C         -4.0732461815       -1.8980386213        0.0835461711
 H         -4.1892493889       -2.4920694471        0.9753565116
 H         -6.1608445812       -1.6337382445       -0.2881566545
 H         -5.7993993705       -0.3179106051       -2.3473750050
 H         -3.4984505488        0.1488512423       -3.1287480145
 H         -1.5695361278       -0.6787780656       -1.8481936373
 H         -1.9986190224       -1.7686920242        2.7633444543
 H         -2.1268050896        0.2543808382        4.0387613284
 H         -1.7042657196        2.6808199566        4.1270555983
 H         -0.6068696356        3.8255820417        2.2441277925
 H          0.7770161637        3.5864974188        0.2682857114
 C         -0.7690528937        3.2645796248       -1.1622219250
 C         -2.1718864164        2.7585994933       -1.2857949602
 C         -1.9196598071        4.1310989567       -0.7425751328
 H         -2.1683934096        4.9834385193       -1.3562976807
 H         -2.0751706750        4.2850229122        0.3138303374
 H         -2.5795990141        2.6550070627       -2.2788556901
 H         -2.4938979721        1.9865268323       -0.6033934041
 H         -0.2727890504        3.5311748022       -2.0890386946
