  62
        -98.94072629
 C         -2.6407672042       -0.1123739015       -0.1774960383
 C         -2.5377243897       -1.3094442154       -0.9298128967
 C         -1.9563654700       -2.4639785114       -0.2393075334
 C         -1.5589628047       -2.3424339136        1.0400058716
 C         -0.9051705827       -3.4136512021        1.8690258796
 C          0.6114893364       -3.5001128335        1.6446783789
 C          1.0336636326       -4.1500147528        0.3256137341
 H          2.0990918038       -4.3749589908        0.4069658633
 H          0.5081758861       -5.0979222672        0.2015193197
 C          0.8092956945       -3.2652775754       -0.9089867253
 H          0.6882081419       -2.2275914220       -0.5864116788
 H          1.6947296948       -3.3032457203       -1.5492365185
 C         -0.3841428995       -3.6707533437       -1.7751770611
 H         -0.4759533697       -2.9491457932       -2.5912907803
 H         -0.1988677074       -4.6538513516       -2.2144104333
 C         -1.7262356633       -3.7150924791       -1.0332726316
 H         -2.5245436608       -3.7894223347       -1.7761319364
 H         -1.7691849873       -4.5889559064       -0.3838162623
 H          1.0244038236       -2.4889870192        1.6997248006
 H          1.0331104695       -4.0823283011        2.4676246981
 H         -1.0857962211       -3.1538736866        2.9142873931
 H         -1.3667312305       -4.3800899883        1.6633881707
 O         -1.7150323795       -1.1930037790        1.7445817217
 C         -2.1841646926       -0.0354169921        1.1417445703
 O         -2.1644772769        0.9614023727        1.8884580279
 O         -2.8910618762       -1.3993749524       -2.1376201237
 C         -3.0404653106        1.1515548390       -0.9259707385
 C         -1.9252144948        2.1468697343       -0.7258072989
 C         -2.0733983697        3.4069011160       -0.1646094731
 C         -0.9616142815        4.1883632581        0.1063637481
 C          0.3156652810        3.7263433915       -0.1563187916
 C          0.4682039862        2.4784325209       -0.7418800002
 C         -0.6432123809        1.7153996892       -1.0455442641
 H         -0.5111459179        0.7310170698       -1.4806468597
 N          1.7779140255        1.9446662643       -0.9380617402
 S          2.1969629030        1.0496102552        0.4454178064
 O          1.3592442901       -0.1248405907        0.5580080636
 O          2.2043709979        1.9537834769        1.5666513129
 C          3.8668506765        0.5635007431        0.0497505930
 C          4.8469176267        1.5374094996        0.0486684802
 C          6.1431266559        1.1815821386       -0.2871157712
 C          6.4354368917       -0.1343575269       -0.6150762704
 C          5.4408925636       -1.1002236843       -0.6091004803
 C          4.1413997119       -0.7502869129       -0.2757729216
 H          3.3361635154       -1.4676404002       -0.2539005359
 H          5.6701883893       -2.1227093243       -0.8627037339
 H          7.4452419661       -0.4093169272       -0.8758549038
 H          6.9197490989        1.9292209289       -0.2921336062
 H          4.5719447394        2.5436530867        0.3172658864
 H          1.7773815783        1.2879300163       -1.7106450508
 H          1.1894097821        4.3002253315        0.1051312947
 H         -1.0925490127        5.1593095758        0.5596528551
 H         -3.0563574935        3.7607546349        0.1012939981
 H         -3.0413412529        0.8442041691       -1.9859102733
 C         -4.4288797233        1.6946733603       -0.6390183615
 C         -5.5254118096        0.7837790741       -0.1755517516
 C         -4.9832708506        1.8329590892        0.7457895273
 H         -5.6031814410        2.6912845972        0.9610115346
 H         -4.3568240634        1.5278128588        1.5683364279
 H         -6.5146780329        0.9167070011       -0.5869530064
 H         -5.2649072779       -0.2468370878        0.0186104954
 H         -4.7134316488        2.4627922053       -1.3520831714
