  62
        -98.94343241
 C         -2.4928948119       -1.1316706319        0.0132145061
 C         -3.4561528069       -0.6043060305        0.9155936060
 C         -4.4301886324        0.3371173863        0.3558631985
 C         -4.3898375412        0.6329953206       -0.9555511289
 C         -5.3318544530        1.5487105224       -1.6887768407
 C         -4.9622000338        3.0352255610       -1.5917988296
 C         -5.2146504866        3.6807666835       -0.2287015225
 H         -5.1227721810        4.7602556590       -0.3639761641
 H         -6.2396069652        3.4782570052        0.0834631472
 C         -4.2411175244        3.2368051160        0.8721517809
 H         -3.3636092607        2.7711605152        0.4172582999
 H         -3.8887594954        4.1127026480        1.4214258690
 C         -4.8382258625        2.2710143870        1.8957914051
 H         -4.0523910946        1.9927409604        2.6025619820
 H         -5.6315972576        2.7729107981        2.4540018575
 C         -5.4086707110        0.9818683508        1.2903611390
 H         -5.6047842136        0.2783672986        2.1031297893
 H         -6.3455967167        1.1906910715        0.7743119073
 H         -3.9098916473        3.1518447525       -1.8611811889
 H         -5.5570074713        3.5673141598       -2.3378395931
 H         -5.2973176338        1.2529899649       -2.7396124522
 H         -6.3470370773        1.4003974167       -1.3194606322
 O         -3.4669741304        0.0936372906       -1.7928037666
 C         -2.4886997638       -0.7786025003       -1.3360363000
 O         -1.7070420457       -1.1501816994       -2.2363653555
 O         -3.5040518065       -0.9185064131        2.1341676271
 C         -1.4851466124       -2.1079208514        0.5967625424
 C         -0.1502113277       -1.4528392625        0.8630659548
 C          0.3533238061       -1.3644418174        2.1556559045
 C          1.5882001728       -0.7863843739        2.3928873217
 C          2.3425743890       -0.2805763561        1.3495409958
 C          1.8465880750       -0.3598176058        0.0546641720
 C          0.6123162350       -0.9485492448       -0.1809396363
 H          0.2300793849       -1.0045106078       -1.1896413420
 N          2.5904167143        0.1765001977       -1.0115565693
 S          4.1941520363       -0.2921635691       -1.1715871785
 O          4.5153783144       -0.0842048942       -2.5666728220
 O          4.4125398752       -1.6234926075       -0.6542546292
 C          5.0864758484        0.8958814383       -0.1899670906
 C          4.8762794675        2.2378068618       -0.4405913524
 C          5.5734732440        3.1746301211        0.3053736104
 C          6.4665893232        2.7563926204        1.2808390163
 C          6.6687326910        1.4054741665        1.5180346575
 C          5.9733031061        0.4630363416        0.7763411781
 H          6.0926189293       -0.5975746823        0.9299370213
 H          7.3632486896        1.0823601122        2.2767538806
 H          7.0079559488        3.4881235709        1.8594611951
 H          5.4181293377        4.2260582216        0.1243494472
 H          4.1749720318        2.5205434669       -1.2080525654
 H          2.1122671283        0.1152650654       -1.8993915437
 H          3.3043282052        0.1720311062        1.5280336544
 H          1.9670178738       -0.7263727489        3.4017031453
 H         -0.2353317544       -1.7452044557        2.9775492286
 H         -1.9085207419       -2.4040021098        1.5660931257
 C         -1.3046528798       -3.3564515439       -0.2455622928
 C         -0.7697430778       -4.5977555019        0.4003912232
 C         -2.2063483129       -4.5313571822       -0.0217631136
 H         -2.5224645818       -5.1077062445       -0.8782843427
 H         -2.9600443678       -4.4430571649        0.7470892876
 H         -0.0935988163       -5.2209108716       -0.1647281884
 H         -0.5494118028       -4.5564889158        1.4563045360
 H         -1.0031580045       -3.1500820467       -1.2644904553
