  62
        -98.93389959
 C         -2.1566462304       -0.9380290204        0.6309487391
 C         -3.2446792204       -0.7839256610       -0.2583285210
 C         -4.1483216107        0.3626097589       -0.0192605614
 C         -3.8859849609        1.2000974593        1.0002144483
 C         -4.6324763511        2.4408981693        1.4155971579
 C         -4.3716985413        3.6349395691        0.4856302874
 C         -4.4530480813        3.3140774185       -1.0039464425
 H         -4.1748301614        4.2176321084       -1.5528794728
 H         -3.7129940011        2.5487940586       -1.2449518222
 C         -5.8276491212        2.8694138180       -1.4983887123
 H         -6.5630247513        3.6385359180       -1.2528191926
 H         -5.7710904911        2.7998737777       -2.5875582423
 C         -6.3280880409        1.5241278981       -0.9656849418
 H         -6.7362122609        1.6208336584        0.0368547881
 H         -7.1553508808        1.2080075777       -1.6075800617
 C         -5.2937354407        0.4041424683       -1.0028100714
 H         -5.8119419905       -0.5546301017       -0.8834673311
 H         -4.8422681406        0.3629326981       -2.0004779314
 H         -3.3668832914        4.0121847793        0.6923912273
 H         -5.0855305015        4.4233133090        0.7310616171
 H         -5.6960056211        2.2327282492        1.4849024979
 H         -4.2771521612        2.6959880698        2.4165964178
 O         -2.8116077908        1.0220862999        1.8242938584
 C         -1.9384863206       -0.0340255200        1.6737002088
 O         -1.0269030406       -0.0711678195        2.5268365788
 H          1.3593353996       -1.1609546697        0.7686263992
 C          1.0977729197       -1.3274033301       -0.2663085107
 C         -0.1682239002       -1.7970407805       -0.5902877405
 C         -0.4924119202       -1.9812153710       -1.9303355005
 C          0.4338928298       -1.6966943212       -2.9169870406
 C          1.6933314997       -1.2262883408       -2.5912838907
 C          2.0284136096       -1.0406698803       -1.2546255308
 N          3.3178770795       -0.6055378499       -0.9000045609
 S          3.5102466793        0.3950071506        0.4461201687
 O          3.4479578795       -0.4118342989        1.6381516890
 O          2.5994478391        1.5160252904        0.3653687683
 C          5.1891425492        0.9387133909        0.1863861985
 C          6.2195694494        0.0920970712        0.5499508589
 C          7.5269530493        0.4926319214        0.3253343687
 C          7.7814703091        1.7260593612       -0.2559798817
 C          6.7375134289        2.5657892209       -0.6136492120
 C          5.4272567090        2.1704671307       -0.3930441019
 H          4.5840490588        2.7930340605       -0.6462159421
 H          6.9382585787        3.5255039908       -1.0618498524
 H          8.7999194590        2.0361647614       -0.4285900618
 H          8.3410368694       -0.1564465283        0.6047468090
 H          5.9725243896       -0.8517327187        1.0071683692
 H          3.8350351095       -0.2475242101       -1.6921384911
 H          2.4138601396       -1.0049186810       -3.3641433308
 H          0.1695670498       -1.8378898716       -3.9541643505
 H         -1.4830352301       -2.3175023713       -2.1912445904
 C         -1.1534282702       -2.0761474903        0.5201061495
 H         -0.5931350602       -2.0624547798        1.4655397895
 C         -1.8121508799       -3.4336893905        0.3743574900
 C         -1.0122631897       -4.6607248702        0.6876805605
 C         -2.1176561998       -4.2317094401        1.6042248203
 H         -3.0262268197       -4.8144793803        1.6273100305
 H         -1.8514753699       -3.8002516497        2.5587423002
 H         -1.1595828495       -5.5411305104        0.0814866708
 H          0.0050991403       -4.5192484999        1.0213181904
 H         -2.5238131799       -3.4859209009       -0.4383023000
 O         -3.4860362203       -1.5597096614       -1.2204582107
