  62
        -98.94626208
 C         -2.3893925287       -0.5253230795       -0.0123015815
 C         -1.3941412529       -0.7248586498        0.9719750043
 C         -0.7064277066       -2.0214200210        0.9463519171
 C         -1.0478563283       -2.9246443234        0.0097516453
 C         -0.3460430972       -4.2303259725       -0.2318633014
 C          0.9597111944       -3.9723358437       -1.0126775658
 C          2.2356820971       -4.3087513579       -0.2398962076
 H          3.0721684868       -3.8908212401       -0.8047153310
 H          2.3608323235       -5.3938184226       -0.2138797731
 C          2.2988782000       -3.7913864423        1.2005571335
 H          3.3421795183       -3.8557542109        1.5165640318
 H          1.7324908013       -4.4575751353        1.8535146335
 C          1.8063518039       -2.3541530353        1.4142980340
 H          1.8716642142       -1.7844135051        0.4861879438
 H          2.4684789305       -1.8674132879        2.1339455145
 C          0.3721225765       -2.2493539105        1.9683434575
 H          0.3167546679       -1.3850896292        2.6363136549
 H          0.1382443803       -3.1401464864        2.5578302782
 H          0.9825830095       -2.9207705948       -1.3103725480
 H          0.9541924784       -4.5567715545       -1.9346931757
 H         -1.0179155556       -4.8622227072       -0.8134711747
 H         -0.1364648706       -4.7207246894        0.7162548741
 O         -2.0347710072       -2.7115938703       -0.8993241576
 C         -2.7063602366       -1.5009986210       -0.9540604655
 O         -3.5526404140       -1.4185981230       -1.8693145406
 O         -1.0828101375        0.1509545464        1.8231876545
 C         -3.0610749872        0.8316341528       -0.1264558743
 C         -1.9970016602        1.8933748557       -0.2802962606
 C         -2.0399886325        3.1246632342        0.3614817772
 C         -1.0058887689        4.0323731639        0.2063501006
 C          0.0994013609        3.7247539936       -0.5659924814
 C          0.1450292757        2.5004704740       -1.2230882018
 C         -0.9134709240        1.6154950295       -1.1042412947
 H         -0.8661499043        0.6711264961       -1.6269597803
 N          1.2523637923        2.1263720729       -2.0119797349
 S          2.1074366365        0.7528724520       -1.5734761554
 O          3.1822868775        0.6624470757       -2.5388905483
 O          1.2239057621       -0.3820022932       -1.5012407696
 C          2.7954148826        1.1366249016        0.0276676854
 C          4.1356568523        1.4646908047        0.1052697123
 C          4.6734146523        1.8117413102        1.3336685614
 C          3.8625716443        1.8340155869        2.4586317877
 C          2.5189781313        1.5078827282        2.3618700146
 C          1.9734792873        1.1553866415        1.1365545101
 H          0.9315966367        0.8900909800        1.0490910507
 H          1.8800157792        1.5217938497        3.2303737388
 H          4.2787686726        2.1059130249        3.4158938382
 H          5.7188134990        2.0642439054        1.4093367886
 H          4.7259101232        1.4309328093       -0.7962342407
 H          1.9070319689        2.8789000831       -2.1769067800
 H          0.9195586309        4.4204014979       -0.6609797654
 H         -1.0520251210        4.9845347700        0.7123588876
 H         -2.8797072326        3.3701805838        0.9909193248
 H         -3.6610050138        0.8016981585       -1.0481417051
 C         -3.9824426035        1.0720042738        1.0516950069
 C         -5.2159309049        1.9078722292        0.8917072850
 C         -5.3326650928        0.4230175398        1.0551708929
 H         -5.7151351186        0.0321559125        1.9860180409
 H         -5.5966032671       -0.1707764413        0.1917717456
 H         -5.5235936280        2.5365142771        1.7137060034
 H         -5.4154177599        2.3251164828       -0.0838202784
 H         -3.4473600137        1.1191023898        1.9930804590
