  62
        -98.94477130
 C         -1.8574671610       -0.6988618743        0.4189146408
 C         -2.4881576227       -0.1642669321       -0.7307662438
 C         -3.5635710990        0.8025639117       -0.4726914240
 C         -3.8509570449        1.1655149314        0.7903621147
 C         -4.9024564912        2.1564621515        1.2103674818
 C         -6.3127538722        1.5607035993        1.3201183045
 C         -6.9889796473        1.2391205919       -0.0132166055
 H         -8.0404758198        1.0386149035        0.2017502705
 H         -6.9508122088        2.1166636700       -0.6594326361
 C         -6.3962390498        0.0291075576       -0.7487675931
 H         -7.2054334717       -0.6128000009       -1.1040933734
 H         -5.7996304622       -0.5642309527       -0.0521029200
 C         -5.5340942757        0.3834024208       -1.9605647978
 H         -5.1361529460       -0.5436301892       -2.3809141479
 H         -6.1526933460        0.8606354842       -2.7238311615
 C         -4.3496681977        1.3063983224       -1.6450636857
 H         -3.6823629075        1.3183828954       -2.5105150710
 H         -4.7016515436        2.3214157215       -1.4613854896
 H         -6.2633630681        0.6565127019        1.9312306093
 H         -6.9322405648        2.2870427592        1.8512995645
 H         -4.9137037081        2.9961690391        0.5147596998
 H         -4.6069152723        2.5251564073        2.1951519212
 O         -3.1777750675        0.6732381425        1.8650172597
 C         -2.1813136517       -0.2772673413        1.7078664210
 O         -1.6555100181       -0.6518978844        2.7768468122
 O         -2.1731891229       -0.4730965663       -1.9084513318
 C         -0.7577683283       -1.7353476474        0.2695842310
 C          0.4064178331       -1.1401181254       -0.4855704926
 C          1.0137296135       -1.7521145608       -1.5732871716
 C          2.0762474675       -1.1409787311       -2.2181373731
 C          2.5624602018        0.0791977543       -1.7880730243
 C          1.9752645444        0.6896288796       -0.6860735383
 C          0.9113993547        0.0770773015       -0.0430605454
 H          0.4525053503        0.5554762044        0.8139487917
 N          2.4776070634        1.9177660763       -0.2242008582
 S          4.1383248783        2.0890802508       -0.1119889496
 O          4.3504029595        3.0500004509        0.9480563411
 O          4.6764732508        2.4490600303       -1.4003536669
 C          4.7503965918        0.4822053178        0.3661886790
 C          4.2715718924       -0.0781429848        1.5339775260
 C          4.7164160472       -1.3365357019        1.9047657458
 C          5.6290911168       -2.0094280435        1.1065405874
 C          6.1052103787       -1.4306706627       -0.0593546459
 C          5.6614718052       -0.1732531847       -0.4366691797
 H          6.0012405250        0.3120916070       -1.3370582795
 H          6.8162238302       -1.9551774020       -0.6769258194
 H          5.9700525499       -2.9904791200        1.3972300067
 H          4.3458206485       -1.7874316663        2.8114495075
 H          3.5645043557        0.4698704167        2.1365229091
 H          2.0130677699        2.2695823989        0.5995335677
 H          3.3774594708        0.5746167931       -2.2903489585
 H          2.5303494326       -1.6213360683       -3.0710993795
 H          0.6490695796       -2.7026463641       -1.9251869506
 H         -0.4159001535       -1.9620243021        1.2900824598
 C         -1.3069120778       -3.0014952123       -0.3527603942
 C         -0.6678869286       -4.3238565022       -0.0563683040
 C         -2.0084610765       -3.9922335756        0.5252469269
 H         -2.8808309265       -4.4974661692        0.1385810008
 H         -2.0690278765       -3.7651777573        1.5800454610
 H         -0.6210324334       -5.0620848377       -0.8425353664
 H          0.1834991190       -4.3298863433        0.6070639105
 H         -1.7132714518       -2.8368708142       -1.3437750764
