  62
        -98.94111725
 C         -1.6647907906       -0.3912211630        0.9499597927
 C         -2.8927683624       -1.0097266493        0.6106832020
 C         -4.0447137013       -0.1071714161        0.4534661189
 C         -3.8826451814        1.2169215022        0.6220482018
 C         -4.9560255939        2.2473286260        0.4267560541
 C         -4.9694641356        2.7695463193       -1.0168400405
 C         -4.9571532766        1.6652723045       -2.0739622855
 H         -4.9987403001        2.1504766266       -3.0515710439
 H         -4.0055208085        1.1312005715       -2.0210998279
 C         -6.1097171902        0.6585139570       -1.9538918995
 H         -6.5248678033        0.4809852392       -2.9482792481
 H         -6.9074207277        1.0795472075       -1.3407859556
 C         -5.7042114186       -0.7047416596       -1.3906570249
 H         -4.8439797894       -1.0888924187       -1.9446783321
 H         -6.5332500075       -1.3992326032       -1.5511500482
 C         -5.3657561067       -0.7340073524        0.1051057252
 H         -6.1739486036       -0.2709957016        0.6747564866
 H         -5.2893752944       -1.7826703360        0.4068324817
 H         -5.8554689590        3.3930507833       -1.1498898499
 H         -4.0870378279        3.3958096340       -1.1665909371
 H         -5.9213568257        1.8105868098        0.6751289973
 H         -4.7597183825        3.0807506259        1.1032871445
 O         -2.6897193971        1.7766515076        0.9464480596
 C         -1.5605475417        0.9948786829        1.1113253049
 O         -0.5338236662        1.6392621694        1.4045118729
 H          1.9953164685       -0.2317903464        0.2657971591
 C          1.5396474972       -0.9005504263       -0.4482816807
 C          0.3019045654       -1.4601676472       -0.1677436734
 C         -0.2843564376       -2.3008148008       -1.1080431264
 C          0.3650310187       -2.5750402940       -2.2974657753
 C          1.6125622342       -2.0373618328       -2.5623363510
 C          2.2048090882       -1.1930767596       -1.6305841566
 N          3.4586227927       -0.6190771417       -1.8764867416
 S          4.5392231570       -0.3529681454       -0.6285235398
 O          5.8267113519       -0.2657945581       -1.2841207402
 O          4.4198892034       -1.3552202328        0.4042719468
 C          4.1047289047        1.2525457685        0.0034763034
 C          3.9077230509        1.4266578454        1.3584150573
 C          3.5897541091        2.6888004665        1.8336932136
 C          3.4768209853        3.7497099933        0.9492980891
 C          3.6819981464        3.5594714213       -0.4088266606
 C          4.0004823188        2.3001062424       -0.8897157683
 H          4.1692725605        2.1142357857       -1.9373622568
 H          3.5915255770        4.3881904665       -1.0926247032
 H          3.2246094544        4.7298621673        1.3221518221
 H          3.4252131294        2.8377376848        2.8888260791
 H          3.9988932942        0.5731150142        2.0122151994
 H          3.9168282918       -0.9296111237       -2.7204193473
 H          2.1245393295       -2.2662311836       -3.4847839458
 H         -0.0992821805       -3.2260899943       -3.0229668900
 H         -1.2533022293       -2.7274987614       -0.8995589442
 C         -0.3673479888       -1.1574536392        1.1517066092
 H          0.2941370494       -0.4764785271        1.7045517177
 C         -0.5256145115       -2.4284662482        1.9648382092
 C          0.7046745787       -3.0754707921        2.5241617682
 C         -0.2679558102       -2.3950784370        3.4394110290
 H         -0.8828778606       -3.0053973133        4.0838110520
 H          0.0191378876       -1.4498413242        3.8770440800
 H          1.6543970686       -2.5963059132        2.3337124064
 H          0.7568873605       -4.1534678121        2.5397160553
 H         -1.3176047439       -3.0739383487        1.6099071748
 O         -3.0489262689       -2.2483452714        0.4415351479
