  62
        -98.95046034
 C          1.7503617140        1.2988138569       -0.2386587694
 C          2.8572325882        0.6778666244        0.3836581464
 C          3.2895603745       -0.5984506268       -0.1987978287
 C          2.6310058876       -1.0937804625       -1.2627187951
 C          2.9482789810       -2.3969847473       -1.9365933873
 C          2.1225867755       -3.5485254837       -1.3480355758
 C          2.1571698250       -3.6198919816        0.1785867445
 H          1.6271899361       -2.7539992438        0.5834968508
 H          1.5807845344       -4.5002144440        0.4737175004
 C          3.5653810737       -3.7041917896        0.7838527067
 H          3.5588864149       -4.4606701979        1.5715922494
 H          4.2754544729       -4.0332071338        0.0238195305
 C          4.0673779453       -2.4064694394        1.4197997784
 H          4.9514185261       -2.6413431721        2.0190954204
 H          3.3042452402       -2.0170736011        2.0991674356
 C          4.4587982638       -1.2905648453        0.4428837800
 H          4.9874419874       -0.5200467828        1.0121146631
 H          5.1388676448       -1.6859873909       -0.3144623256
 H          1.0804243362       -3.4202079488       -1.6502949648
 H          2.4900567749       -4.4870053421       -1.7686761369
 H          2.7124336499       -2.2998883014       -2.9979902235
 H          4.0109516236       -2.6062759284       -1.8279338675
 O          1.5746568775       -0.4669496341       -1.8372355916
 C          1.0873685247        0.7214271056       -1.3205880639
 O          0.0845503328        1.1674123688       -1.9123873384
 O          3.4560466511        1.1699787126        1.3799716593
 C          1.2147410890        2.6018866045        0.3259766442
 C         -0.2353584233        2.4397549542        0.7105467499
 C         -1.1999981049        3.4157993771        0.4925873532
 C         -2.5201684283        3.1900969330        0.8436767923
 C         -2.9112264334        1.9824597202        1.3925341965
 C         -1.9512646496        1.0047023943        1.6242066690
 C         -0.6247078659        1.2514731156        1.3150142241
 H          0.1075806427        0.4808130175        1.5067739322
 N         -2.2905516112       -0.2631366238        2.1457210520
 S         -2.0704241129       -1.5559814454        1.0957503979
 O         -2.5461658074       -2.7159868391        1.8197516842
 O         -0.7037091145       -1.5985125012        0.6489951794
 C         -3.1889894133       -1.2000125803       -0.2476563670
 C         -4.4543819352       -1.7551946162       -0.2085345702
 C         -5.3670528401       -1.4197282936       -1.1947167391
 C         -5.0041496782       -0.5274880404       -2.1928713052
 C         -3.7324125402        0.0231750430       -2.2148611794
 C         -2.8104223291       -0.3113240476       -1.2337332703
 H         -1.8139480110        0.1037860770       -1.2397353217
 H         -3.4412417035        0.7168999030       -2.9872507073
 H         -5.7148164851       -0.2602391843       -2.9590276611
 H         -6.3555631119       -1.8498140856       -1.1801846687
 H         -4.6888864146       -2.4447627135        0.5865127272
 H         -3.2278938747       -0.3069879750        2.5234186193
 H         -3.9457436430        1.7939073176        1.6373300645
 H         -3.2578108072        3.9578333931        0.6671601819
 H         -0.9188340715        4.3525366227        0.0397619373
 H          1.7989734010        2.7892236131        1.2397871957
 C          1.4529597930        3.7382245110       -0.6475049705
 C          1.6971737485        5.1299496066       -0.1471936392
 C          2.8235328561        4.3371930698       -0.7367164211
 H          3.2020932675        4.6167538660       -1.7083694304
 H          3.5783055960        3.9432397171       -0.0717384976
 H          1.3049121658        5.9589485857       -0.7167671588
 H          1.6945267845        5.2855327835        0.9210497571
 H          0.9003672934        3.6133470959       -1.5720974887
