  62
        -98.93815294
 C         -1.7156948206       -1.4005393899        0.0760249081
 C         -0.9627791807       -2.3661885394       -0.6374938828
 C          0.3841993292       -2.6525126801       -0.1266120130
 C          0.8313671493       -2.0040530912        0.9629045476
 C          2.1982034592       -2.1189625020        1.5805128276
 C          3.3487698094       -1.5970918815        0.6975655681
 C          4.0636830892       -2.6892621009       -0.1082426128
 H          5.1381307892       -2.4963958712       -0.0876543326
 H          3.9075774390       -3.6506352513        0.3831123463
 C          3.6596089892       -2.8005051395       -1.5815717229
 H          4.0376914690       -3.7530179693       -1.9609391138
 H          4.1475150994       -2.0028993991       -2.1470025522
 C          2.1618084792       -2.7080889590       -1.8796292429
 H          2.0032838392       -3.0185830080       -2.9151706132
 H          1.8392707895       -1.6645446689       -1.8256173920
 C          1.2613824090       -3.5481216496       -0.9515418737
 H          0.5967642189       -4.1729985089       -1.5521719043
 H          1.8616960389       -4.1950454003       -0.3133319043
 H          4.0751330594       -1.1256405822        1.3611210585
 H          2.9684959896       -0.8209701008        0.0311986088
 H          2.3854720690       -3.1602265623        1.8509437367
 H          2.1569713693       -1.5321956428        2.5001323481
 O          0.0531920094       -1.1380323516        1.6628786584
 C         -1.2092656305       -0.7757021510        1.2169234486
 O         -1.7550698703        0.0947343785        1.9200649594
 O         -1.3897337608       -2.9425566184       -1.6745681333
 C         -2.9833757704       -0.8645004890       -0.5716821815
 C         -2.8407769101        0.6378262210       -0.6459018002
 C         -3.7881003599        1.5475880208       -0.1992757594
 C         -3.5151376796        2.9057889108       -0.2288637482
 C         -2.2927381595        3.3796055909       -0.6680716777
 C         -1.3376506597        2.4742230111       -1.1231855085
 C         -1.6389445200        1.1238353912       -1.1493797097
 H         -0.8978577401        0.4289262314       -1.5144740803
 N         -0.0777171796        2.9156433212       -1.5621111381
 S          1.3567486302        2.1043210407       -1.3297871787
 O          2.3410598504        2.9366489211       -1.9883551179
 O          1.2627073600        0.7477806112       -1.8121086299
 C          1.7448973602        2.0604108291        0.4151091113
 C          3.0884449601        2.0368534385        0.7404208413
 C          3.4608143701        1.9310863173        2.0698266412
 C          2.4860936100        1.8469523666        3.0527568411
 C          1.1440472400        1.8772891772        2.7118294311
 C          0.7644363701        1.9844366185        1.3818837012
 H         -0.2805439599        1.9826065389        1.1154997511
 H          0.3754075500        1.7979753867        3.4638972110
 H          2.7726960999        1.7554649756        4.0887060710
 H          4.5060103000        1.9091423668        2.3337038912
 H          3.8110864902        2.1043645791       -0.0568378086
 H          0.0698325306        3.9120687811       -1.5009224072
 H         -2.0708483193        4.4357690008       -0.6512966068
 H         -4.2573078395        3.6054994506        0.1243586124
 H         -4.7263112500        1.1967862306        0.1979880402
 H         -2.9495530205       -1.2620697681       -1.6006711619
 C         -4.2959182505       -1.3375660593        0.0291468080
 C         -4.3673620208       -2.6229634700        0.7968792169
 C         -4.5623269406       -1.3167848505        1.5033097780
 H         -5.5577185806       -1.0623078106        1.8373089182
 H         -3.7759049105       -0.9546807413        2.1453783484
 H         -5.2227921110       -3.2645789996        0.6465502363
 H         -3.4421005810       -3.1574861103        0.9575519765
 H         -5.1391026705       -1.1220765685       -0.6204865018
