  62
        -98.93193836
 C          1.8494088393        1.3026155506        0.1831864494
 C          2.0699926597        0.0673409110        0.8439152002
 C          3.1616453198       -0.7716790391        0.3304974605
 C          3.8634609795       -0.3448743796       -0.7349316399
 C          5.0548844396       -1.0386917097       -1.3317467796
 C          6.3010353897       -0.7907698189       -0.4579760700
 C          6.8616642001       -2.0464158683        0.2099875307
 H          7.5909985801       -1.7226351977        0.9557088303
 H          7.3955469000       -2.6375438587       -0.5371200390
 C          5.8323576104       -2.9600593081        0.8822430815
 H          6.3885702806       -3.6468214376        1.5238896018
 H          5.3370948604       -3.5724425787        0.1273283520
 C          4.7603869104       -2.2572297378        1.7253604312
 H          5.1159469102       -1.2847241775        2.0667213005
 H          4.5816849607       -2.8605066673        2.6178898616
 C          3.4011028902       -2.0855995086        1.0216593514
 H          2.6093106504       -2.1524205882        1.7735845415
 H          3.2521602303       -2.9042948990        0.3123267419
 H          6.0426785496       -0.0549861784        0.3065901895
 H          7.0900750295       -0.3460815091       -1.0663509305
 H          5.2036330093       -0.6274319003       -2.3303125399
 H          4.8547098598       -2.1041983898       -1.4194581189
 O          3.6081455591        0.8322234899       -1.3585843606
 C          2.5966009190        1.6860139800       -0.9311171210
 O          2.4886271987        2.7145253195       -1.6214632016
 O          1.3814337700       -0.3115358985        1.8302190006
 C          0.7325683992        2.1703515607        0.7359198491
 C         -0.5778541308        1.8070724800        0.0858727196
 C         -0.7209082511        1.8047838691       -1.2984618004
 C         -1.9296359711        1.4618394584       -1.8764027900
 C         -3.0122981609        1.1018558387       -1.0922525195
 C         -2.8716407706        1.0766449796        0.2888574305
 C         -1.6600082606        1.4337950503        0.8682134000
 H         -1.5532245104        1.4054623610        1.9438767000
 N         -3.9547732404        0.6900355099        1.0922293609
 S         -4.9237276602       -0.5754214406        0.5871577119
 O         -5.8785148305       -0.0962774815       -0.3810650882
 O         -5.4820718798       -1.1263560900        1.8015394924
 C         -3.8261186101       -1.7524203009       -0.1851804075
 C         -4.0700038402       -2.1633368418       -1.4799682272
 C         -3.2071604801       -3.0733811720       -2.0690595468
 C         -2.1177337599       -3.5512741613       -1.3575595167
 C         -1.8874246598       -3.1310428904       -0.0564477670
 C         -2.7494031198       -2.2246088502        0.5387692326
 H         -2.5909638197       -1.8850951495        1.5497983123
 H         -1.0369941396       -3.4980758398        0.4956534131
 H         -1.4426324398       -4.2553962114       -1.8178464663
 H         -3.3845474203       -3.4037908127       -3.0798632065
 H         -4.9258723804       -1.7626267023       -1.9986418473
 H         -3.7409245802        0.6256673906        2.0764063409
 H         -3.9627202209        0.8448977082       -1.5307695192
 H         -2.0316159213        1.4742705177       -2.9509007100
 H          0.1246231188        2.0781836188       -1.9118581907
 H          0.6599068995        1.8860537214        1.7978849993
 C          1.0348527489        3.6609797207        0.6908940081
 C          0.3084590385        4.6336747700       -0.1837331224
 C          0.0651591988        4.6345919609        1.2937258076
 H          0.4491199288        5.4518884614        1.8851829270
 H         -0.8791101610        4.2423613209        1.6414212980
 H          0.8834492083        5.4364802498       -0.6191580631
 H         -0.4729091015        4.2622708994       -0.8274265021
 H          2.0884121089        3.8635634911        0.8536816677
