  62
        -98.93835126
 C         -1.8161755658       -1.0158235112       -0.1994043132
 C         -2.3414841713        0.1284663207       -0.8419963243
 C         -3.8101835200        0.2647539927       -0.8314438951
 C         -4.5521567639       -0.6885028112       -0.2413653113
 C         -6.0466993901       -0.7160005885       -0.0766150788
 C         -6.4554928130       -0.1166303974        1.2796914532
 C         -6.6496078584        1.3992018154        1.2826080548
 H         -7.5587364948        1.6453051264        0.7299221329
 H         -6.8042904616        1.7050285780        2.3198864603
 C         -5.4892033017        2.2097695492        0.6992088055
 H         -5.5670717898        3.2292248184        1.0821239110
 H         -4.5397920633        1.8040160743        1.0534823241
 C         -5.4964682705        2.2546630547       -0.8360595151
 H         -6.4553544295        1.8849616168       -1.1990344347
 H         -5.4195098458        3.2922290123       -1.1678735041
 C         -4.3549020689        1.4869722613       -1.5188568720
 H         -4.6674337176        1.2083012661       -2.5309760037
 H         -3.4888659309        2.1471565561       -1.6321761316
 H         -5.6911178290       -0.3915771413        2.0109530106
 H         -7.3926372287       -0.5775834721        1.5982443414
 H         -6.5351136202       -0.2008147229       -0.8982773625
 H         -6.3419118781       -1.7671777993       -0.0949140146
 O         -4.0026607900       -1.7803873245        0.3591507126
 C         -2.6343456719       -1.9709781016        0.4022757460
 O         -2.2735444125       -3.0066167958        0.9969509773
 H          1.8720397670        0.2136520159       -1.0555483129
 C          1.4726834249        0.5622960789       -0.1181901979
 C          0.3743443307       -0.0544221629        0.4590654955
 C         -0.1083559988        0.4398462356        1.6691188554
 C          0.4723833377        1.5403985566        2.2666348305
 C          1.5592635148        2.1644033084        1.6788748306
 C          2.0577302970        1.6717731078        0.4800169802
 N          3.1560191132        2.2853415338       -0.1396278554
 S          4.3218546703        1.3536337534       -0.8845832300
 O          5.5045198061        2.1882718516       -0.8845761014
 O          3.8702641334        0.9081760747       -2.1781974417
 C          4.5645062877       -0.0460609391        0.1960771095
 C          4.4583753051       -1.3248943202       -0.3089724265
 C          4.6447138579       -2.4018437411        0.5432939158
 C          4.9298042807       -2.1813346454        1.8814350698
 C          5.0386060481       -0.8894945508        2.3736191024
 C          4.8567950686        0.1900960417        1.5252059480
 H          4.9454113719        1.2046658083        1.8776338072
 H          5.2631776947       -0.7216197272        3.4145940084
 H          5.0694508986       -3.0209773569        2.5439269897
 H          4.5645981384       -3.4067984324        0.1601444143
 H          4.2293606780       -1.4519884385       -1.3543379060
 H          3.5574678592        3.0585336539        0.3694116579
 H          2.0088144546        3.0318859030        2.1375223729
 H          0.0782460335        1.9171479709        3.1984176434
 H         -0.9592158226       -0.0467353155        2.1269381235
 C         -0.3152842681       -1.2429402258       -0.1638912477
 H         -0.1551277421       -2.1142460744        0.4880889978
 C          0.1835786452       -1.5774574936       -1.5539787911
 C          1.3682692732       -2.4749803484       -1.7387598166
 C         -0.0060238193       -2.9701850969       -2.0728153817
 H         -0.2716712098       -3.1024362524       -3.1109752750
 H         -0.4692672733       -3.6856577664       -1.4087996756
 H          2.0477502737       -2.2638345774       -2.5511727046
 H          1.8427910745       -2.8619534079       -0.8498775407
 H          0.0459479147       -0.7613791018       -2.2547444597
 O         -1.6224201831        1.0024797176       -1.3942285741
