  62
        -98.94487508
 C         -1.8835639104        0.6847082908        0.1981960250
 C         -2.4300486097        0.0144629556       -0.9222718310
 C         -3.5535353976       -0.8868037411       -0.6446472720
 C         -3.9595190688       -1.0743360782        0.6244695269
 C         -5.0763774150       -1.9780003503        1.0715725594
 C         -6.4690924936       -1.3394976149        0.9779226828
 C         -7.0183437780       -1.1804508738       -0.4404179414
 H         -8.0763204325       -0.9273797995       -0.3470966220
 H         -6.9576043343       -2.1364379788       -0.9615968229
 C         -6.3227564583       -0.0931344664       -1.2712864170
 H         -5.7669220243        0.5728180866       -0.6072729075
 H         -7.0755251109        0.5152249902       -1.7775836701
 C         -5.3741155548       -0.6252499515       -2.3454531944
 H         -4.9120933235        0.2285871485       -2.8474906278
 H         -5.9419360307       -1.1868500911       -3.0905816899
 C         -4.2519665959       -1.5233847595       -1.8083268917
 H         -3.5149647150       -1.6643878387       -2.6029363809
 H         -4.6518383759       -2.4973519278       -1.5266901076
 H         -6.4396151857       -0.3641351040        1.4690946592
 H         -7.1565889624       -1.9743841439        1.5415432114
 H         -5.0578529902       -2.9008869072        0.4910395721
 H         -4.8785848017       -2.2216123379        2.1177165410
 O         -3.3668390856       -0.4587894167        1.6814269723
 C         -2.3296555041        0.4460483792        1.4984751912
 O         -1.9010047981        0.9512502396        2.5521862904
 H          0.4073878007       -0.6691635483       -0.4835898144
 C          0.9598663701       -0.1162492132        0.2660370501
 C          0.5057131295        1.1421313028        0.6453105580
 C          1.2282674795        1.8479529765        1.5968346575
 C          2.3585034217        1.2916001327        2.1725783332
 C          2.7984524563        0.0343818656        1.8041866866
 C          2.0925911028       -0.6727404525        0.8377868676
 N          2.5509344042       -1.9395339654        0.4351106203
 S          4.1831750360       -2.0856360404        0.0876005475
 O          4.2712577006       -3.1498352058       -0.8877666953
 O          4.9213580537       -2.2911767287        1.3088575123
 C          4.6445094642       -0.5229126691       -0.6402912695
 C          5.5796253481        0.2788202725       -0.0183686607
 C          5.8898351148        1.5067341482       -0.5807895628
 C          5.2590467399        1.9113104625       -1.7467370324
 C          4.3247677648        1.0922553564       -2.3624203272
 C          4.0123949035       -0.1371536420       -1.8058690783
 H          3.2930566731       -0.7980346937       -2.2629257315
 H          3.8347762544        1.4074970773       -3.2697570115
 H          5.4959637429        2.8700570292       -2.1802482698
 H          6.6173550753        2.1446761616       -0.1055861954
 H          6.0428002418       -0.0730761716        0.8889122192
 H          1.9852131971       -2.3697053123       -0.2816100228
 H          3.6694650546       -0.4161734404        2.2517714968
 H          2.9033045831        1.8456320543        2.9214342850
 H          0.9008920459        2.8285651658        1.8989843114
 C         -0.7433368176        1.6637947673       -0.0208081623
 H         -0.5698871066        1.6645092256       -1.1070381556
 C         -1.1352645321        3.0605415281        0.4093953810
 C         -0.4417493511        4.2474533598       -0.1876170831
 C         -1.8595927198        3.9410113376       -0.5628886447
 H         -2.6443043761        4.5829129946       -0.1914224093
 H         -2.0550007627        3.5402155738       -1.5469507851
 H          0.3284227661        4.0583397148       -0.9196994255
 H         -0.2529275010        5.1044461634        0.4407561220
 H         -1.4378246494        3.1103954541        1.4489876684
 O         -1.9941510648        0.1572608912       -2.0969895596
