  62
        -98.93316937
 C          2.3291597931        0.7881681516        0.1634660182
 C          2.6032476549       -0.5848054092        0.3853090179
 C          3.8695562793       -1.1239013128       -0.1457917035
 C          4.6932635585       -0.2928980381       -0.8107641455
 C          6.0432313007       -0.5905850870       -1.4075804872
 C          7.1510366690       -0.6914960187       -0.3470141223
 C          6.7796442458       -1.4981732713        0.8942891264
 H          7.6032655815       -1.4081308800        1.6074511488
 H          5.8982814741       -1.0538214063        1.3602840293
 C          6.5310814828       -2.9852834971        0.6534973236
 H          6.3761769327       -3.4501212559        1.6305835524
 H          7.4249528281       -3.4312918740        0.2118515045
 C          5.3290272662       -3.3288232696       -0.2291882789
 H          5.5573822071       -3.1804611187       -1.2811590576
 H          5.1273445759       -4.3965828811       -0.1030681044
 C          4.0411335722       -2.5971456022        0.1359221443
 H          3.2021524282       -3.0913595304       -0.3692299048
 H          3.8445495088       -2.7258245618        1.2066110892
 H          7.4012007025        0.3214861712       -0.0226508178
 H          8.0368794859       -1.1249852316       -0.8141460292
 H          5.9958753685       -1.4958063106       -2.0055041317
 H          6.2780445033        0.2394602272       -2.0774499527
 O          4.3922905910        1.0217997362       -0.9983192542
 C          3.2238460939        1.5982715390       -0.5352693758
 O          3.1258049982        2.8097628369       -0.8133256272
 H         -1.2797783538       -0.0930546182        0.5808965942
 C         -1.1802193053        0.5982345923       -0.2435896950
 C         -0.0483913981        1.3928062870       -0.3520539687
 C          0.0625617841        2.2576344801       -1.4364045220
 C         -0.9447158808        2.3252713363       -2.3810673517
 C         -2.0847206111        1.5508173320       -2.2559294392
 C         -2.2000484910        0.6762038934       -1.1820122509
 N         -3.3326806557       -0.1406822339       -1.0392336560
 S         -3.8971089542       -0.4577531452        0.5205715828
 O         -3.8452394768        0.7463796966        1.3186996360
 O         -3.1983843539       -1.6032140986        1.0468005302
 C         -5.5898200663       -0.8942645635        0.1682875736
 C         -5.8764474938       -2.1897389721       -0.2188690728
 C         -7.1864360645       -2.5229367427       -0.5246122296
 C         -8.1820153986       -1.5608155053       -0.4397723392
 C         -7.8793151216       -0.2653068464       -0.0481850711
 C         -6.5710947530        0.0750476800        0.2582286250
 H         -6.2907068568        1.0664338965        0.5760785418
 H         -8.6559291347        0.4792676727        0.0203860216
 H         -9.2007923342       -1.8232601520       -0.6774514885
 H         -7.4257926503       -3.5299742181       -0.8260241994
 H         -5.0710601847       -2.9045326157       -0.2613224173
 H         -4.0828618388        0.1112436643       -1.6682006518
 H         -2.8757690623        1.6165216439       -2.9875423351
 H         -0.8466562982        2.9994360389       -3.2186555611
 H          0.9479399080        2.8667216772       -1.5331107431
 C          1.0184273190        1.3203859141        0.7148841878
 H          0.6916473475        0.5724208473        1.4510673971
 C          1.1478039520        2.6579054541        1.4187147646
 C          0.0414495913        3.0989369856        2.3280292728
 C          1.3659040518        2.6924340695        2.8998715556
 H          2.0088658790        3.4579147600        3.3077210119
 H          1.4280176233        1.7467270906        3.4188656618
 H         -0.2255032130        4.1444912427        2.3434677168
 H         -0.7985981874        2.4307096821        2.4540250209
 H          1.6431578192        3.4131889523        0.8229195499
 O          1.8200704792       -1.3444123103        1.0195989545
