  62
        -98.93651469
 C         -0.6533371541       -1.8225355198       -0.4152537924
 C         -1.0878912746       -0.5135960848       -0.7397407372
 C         -2.3186880128       -0.0584365494       -0.0666308832
 C         -2.8948092539       -0.8393534809        0.8625629815
 C         -4.1700150684       -0.5336315445        1.5966493620
 C         -5.3852030826       -0.8019750779        0.6858175493
 C         -6.1879002746        0.4468489899        0.3199999212
 H         -6.8722519401        0.1712783079       -0.4851593931
 H         -6.7925973337        0.7437262902        1.1795051441
 C         -5.3663220356        1.6630855085       -0.1175754642
 H         -6.0605450679        2.3628201763       -0.5877378636
 H         -4.9628184378        2.1680397145        0.7615044206
 C         -4.2155507729        1.3786260382       -1.0913326124
 H         -4.1821738003        2.1884935959       -1.8226050591
 H         -4.3999117805        0.4577432041       -1.6446428997
 C         -2.8233097686        1.3090084320       -0.4363402333
 H         -2.0823460995        1.6927488030       -1.1437581224
 H         -2.8001849415        1.9544074906        0.4467639468
 H         -5.0280975676       -1.2877775913       -0.2246020019
 H         -6.0568264856       -1.5086767830        1.1756304923
 H         -4.2008207539       -1.1812532779        2.4733915878
 H         -4.1600617898        0.5013755285        1.9318715678
 O         -2.4096611252       -2.0640879862        1.1971613758
 C         -1.2916307524       -2.5821501237        0.5671208018
 O         -0.9682871995       -3.7233064327        0.9578118287
 H          1.3402654989       -0.0778296743       -0.0692027568
 C          2.0222697156       -0.8574618390        0.2273433442
 C          1.7906781842       -2.1613662421       -0.1861967672
 C          2.6800678252       -3.1549086361        0.2046729728
 C          3.7689075135       -2.8461047731        1.0014288373
 C          3.9819999995       -1.5492620882        1.4335101590
 C          3.0970262442       -0.5490416831        1.0461458050
 N          3.2821539772        0.7814539876        1.4445234965
 S          1.9635675060        1.7869083522        1.6660132500
 O          2.4712051060        2.8570703459        2.5026820496
 O          0.8245408306        1.0731581400        2.1994464256
 C          1.5985050872        2.4590053377        0.0592100482
 C          0.3734657991        3.0714332083       -0.1060813989
 C          0.0676011576        3.6457964305       -1.3284799963
 C          0.9880968679        3.5936090323       -2.3623943954
 C          2.2146655882        2.9756921224       -2.1801439844
 C          2.5299707495        2.4064795143       -0.9569950997
 H          3.4731468412        1.9130210106       -0.7891859616
 H          2.9262490234        2.9295142665       -2.9889766560
 H          0.7441706960        4.0313575841       -3.3176165071
 H         -0.8892817846        4.1226083814       -1.4708505518
 H         -0.3204021273        3.0707141370        0.7199775693
 H          4.0108277733        0.9423628535        2.1236684009
 H          4.8206837467       -1.3116075375        2.0698593611
 H          4.4519706599       -3.6259802023        1.3020994982
 H          2.5021967920       -4.1754398010       -0.1011802809
 C          0.5793279930       -2.4716744642       -1.0268267343
 H          0.4013069446       -3.5572986388       -0.9602082173
 C          0.7745368508       -2.1326794152       -2.4978103733
 C          1.8265519313       -1.1934017449       -2.9970947119
 C          1.9671493570       -2.6647576381       -3.2366793460
 H          1.8272567305       -3.0449484817       -4.2372311227
 H          2.7108133693       -3.1952734437       -2.6613042872
 H          1.5661685399       -0.5501563169       -3.8230906488
 H          2.4760044988       -0.7269335872       -2.2735381913
 H         -0.1682159319       -2.1261537148       -3.0350804186
 O         -0.5004384070        0.2506758873       -1.5464834969
