  62
        -98.94050315
 C          1.3678477205        0.9384617748       -0.1370524098
 C          2.4830515398        0.9398711394        0.7377784392
 C          3.4862885902       -0.1229487717        0.5607461107
 C          3.3022076832       -1.0425540406       -0.4045604790
 C          4.1139775258       -2.2609144214       -0.7934221459
 C          5.5259134598       -2.4634617291       -0.2502334545
 C          6.5594727770       -1.4660166971       -0.7732342101
 H          7.4976568003       -1.6344720547       -0.2401828185
 H          6.7358708468       -1.6737544768       -1.8316265303
 C          6.1748720845        0.0062274430       -0.6511621097
 H          5.2839237496        0.2029735795       -1.2508686671
 H          6.9879676110        0.6003874781       -1.0769203904
 C          5.9336115469        0.5023913245        0.7729106970
 H          5.8231309437        1.5891805517        0.7289107161
 H          6.8045921810        0.2799182212        1.3923853679
 C          4.6820500749       -0.0611897794        1.4673913441
 H          4.8793040807       -1.0351854682        1.9093730434
 H          4.4122370246        0.6184439220        2.2811329994
 H          5.8407465337       -3.4616956355       -0.5666280139
 H          5.5128170147       -2.4682612545        0.8357340341
 H          4.1473569225       -2.2612855392       -1.8878126594
 H          3.5023347503       -3.1238287352       -0.5058235785
 O          2.2108006979       -1.0107986029       -1.2207214995
 C          1.2214093188       -0.0440868383       -1.1153748975
 O          0.3076878720       -0.1842907267       -1.9509999074
 O          2.6356381529        1.8066009256        1.6413109291
 C          0.3446293061        2.0365677925        0.0801295047
 C         -0.7393692388        1.6222238443        1.0500106095
 C         -1.2703440666        2.5455447829        1.9444329252
 C         -2.2774493034        2.1801453774        2.8183077642
 C         -2.7811569859        0.8919192390        2.8113511176
 C         -2.2543977113       -0.0410710065        1.9253204012
 C         -1.2402967537        0.3296701619        1.0525127183
 H         -0.8297408520       -0.4100586530        0.3843076815
 N         -2.7281377175       -1.3600266250        1.9156370905
 S         -2.8517120576       -2.2149585374        0.4827833857
 O         -3.7632353958       -3.2944022222        0.8034364021
 O         -1.5460051657       -2.6131296099        0.0228677771
 C         -3.6467189267       -1.0869933245       -0.6464114430
 C         -4.9842280597       -0.8186902541       -0.4211859565
 C         -5.6369675533        0.0854225312       -1.2413901634
 C         -4.9426155265        0.7073824685       -2.2685857787
 C         -3.6037004030        0.4235111156       -2.4830314175
 C         -2.9421942261       -0.4819714125       -1.6658351098
 H         -1.8972782971       -0.7103381095       -1.8103112483
 H         -3.0594843732        0.9024026749       -3.2818903906
 H         -5.4475692630        1.4148006403       -2.9073372945
 H         -6.6799890016        0.3038350841       -1.0783952310
 H         -5.4905366968       -1.3350547636        0.3782214183
 H         -3.5166956576       -1.5325949196        2.5216207762
 H         -3.5654211275        0.6030043422        3.4938732346
 H         -2.6763998443        2.9044208986        3.5117031152
 H         -0.8764173106        3.5501995227        1.9636441421
 H          0.9010054859        2.8631744073        0.5445878657
 C         -0.2972570509        2.5478421404       -1.1957523729
 C         -0.7735776532        3.9660908145       -1.2717477292
 C          0.4361919813        3.5390772823       -2.0465670381
 H          0.3649551424        3.4463659763       -3.1196425574
 H          1.4056225382        3.8699666177       -1.7027940716
 H         -1.6843556032        4.1723875152       -1.8119051331
 H         -0.6201902122        4.5979180532       -0.4106198585
 H         -0.8809836793        1.7937175987       -1.7063700954
