  62
        -98.94079170
 C         -2.6600288995       -0.0900511218        0.3772713106
 C         -2.7314641589       -1.1112841516       -0.6046118896
 C         -2.1754762580       -2.4152430913       -0.2363548299
 C         -1.6181595379       -2.5772303112        0.9766961300
 C         -0.9563971871       -3.8279955309        1.4877162798
 C          0.4971999430       -3.9780763799        1.0168497697
 C          0.6673728432       -4.4068021994       -0.4418072704
 H          1.7038547535       -4.7292673687       -0.5597852104
 H          0.0314729238       -5.2697123598       -0.6444643105
 C          0.3806728725       -3.2973819594       -1.4632688701
 H          0.4272087519       -2.3253406195       -0.9667184399
 H          1.1601745525       -3.3018159587       -2.2294935501
 C         -0.9580089574       -3.4264984101       -2.1903016501
 H         -0.9476327268       -4.3178159500       -2.8228535303
 H         -1.0791722979       -2.5532436700       -2.8363930700
 C         -2.1807670273       -3.5027724011       -1.2685368702
 H         -3.0768449274       -3.3702126215       -1.8806210001
 H         -2.2278996967       -4.4788206312       -0.7855847504
 H          1.0113340524       -3.0261170496        1.1755415799
 H          0.9718309134       -4.7281989397        1.6543231696
 H         -0.9633437472       -3.7612939512        2.5778687598
 H         -1.5339099566       -4.7033338912        1.1878630096
 O         -1.6093432586       -1.5920851714        1.9108495403
 C         -2.0993440794       -0.3198216917        1.6345051805
 O         -1.9987350299        0.4682320182        2.5941204907
 O         -3.2449448590       -0.9350374117       -1.7434457796
 C         -3.0991914404        1.2935676080       -0.0722366091
 C         -1.9447150608        1.9185325290       -0.8175730790
 C         -2.1109934812        2.4913794791       -2.0723075388
 C         -1.0189905515        2.9716681900       -2.7749072287
 C          0.2577613786        2.8606413607       -2.2553691488
 C          0.4325505889        2.2968290205       -0.9956084189
 C         -0.6681739308        1.8613735997       -0.2754432890
 H         -0.5152294605        1.4349473795        0.7049959609
 N          1.7085338690        2.1525559412       -0.4298217789
 S          1.9872942099        0.7847340412        0.5300301708
 O          1.2583301206       -0.3486332292        0.0126349005
 O          1.7538859697        1.1401718807        1.9073353509
 C          3.7371681100        0.5564826324        0.2693003707
 C          4.6202961795        1.3941391128        0.9247820909
 C          5.9793929596        1.2397663937        0.7028362409
 C          6.4302721702        0.2563315442       -0.1655668393
 C          5.5323084508       -0.5782438662       -0.8136198895
 C          4.1711199607       -0.4277715472       -0.5978361795
 H          3.4346604611       -1.0556672175       -1.0736124296
 H          5.8851801913       -1.3445249359       -1.4847367597
 H          7.4886160203        0.1376425249       -0.3356606293
 H          6.6804919292        1.8844605041        1.2077172210
 H          4.2227928990        2.1351579424        1.5986899311
 H          2.4581758089        2.3150012619       -1.0880323189
 H          1.1133557583        3.2010453714       -2.8184457987
 H         -1.1608273618        3.4118578501       -3.7502088286
 H         -3.0986042312        2.5327917886       -2.5075250588
 H         -3.9059602303        1.1197534177       -0.8031239991
 C         -3.6618992210        2.1774056274        1.0273142111
 C         -2.9143078617        3.3358065578        1.6090066513
 C         -4.0860889119        3.5812674572        0.7092072314
 H         -5.0014949621        3.9549959666        1.1418236815
 H         -3.8811569821        3.9482379376       -0.2851375885
 H         -3.0182638819        3.5141459175        2.6683211414
 H         -1.9238503519        3.5427830485        1.2338437214
 H         -4.2890044206        1.6196599669        1.7147540710
