  62
        -98.94492719
 C          1.0830361719        1.3257121133        0.8335669558
 C          2.2077941145        1.4385936709       -0.0196988331
 C          3.1799889386        0.3398945447        0.0613287055
 C          2.9542868005       -0.7020327711        0.8810530892
 C          3.8693990373       -1.8796053770        1.0864938587
 C          3.7385466686       -2.9842252819        0.0288399878
 C          4.2903853228       -2.6410489802       -1.3550201482
 H          5.3149467100       -2.2802459809       -1.2605961800
 H          4.3259008413       -3.5715351058       -1.9252766096
 C          3.4500784654       -1.6167273532       -2.1306038376
 H          2.4621230874       -1.5308386967       -1.6720653021
 H          3.3013223707       -1.9652143890       -3.1550512902
 C          4.0746189690       -0.2243519265       -2.2096855155
 H          3.3820788868        0.4356693736       -2.7380621055
 H          5.0030210904       -0.2687789289       -2.7836423718
 C          4.3746128859        0.4020496427       -0.8423207678
 H          5.2283591880       -0.0926435301       -0.3797054659
 H          4.6205942130        1.4557620886       -0.9949620481
 H          4.2775997027       -3.8570727790        0.4045727078
 H          2.6858248426       -3.2533595732       -0.0638116006
 H          4.9027044154       -1.5322018833        1.1230938021
 H          3.6131404400       -2.3035618694        2.0597184267
 O          1.8478213797       -0.7848402650        1.6680778866
 C          0.8906405009        0.2148496469        1.6597747384
 O         -0.0691368150        0.0096401773        2.4297263786
 O          2.4145298262        2.4007176542       -0.8033382182
 C         -0.0252302141        2.3690590506        0.8401306022
 C         -0.8476236006        2.1445668646       -0.4052296236
 C         -0.6035490665        2.8019222960       -1.6048156528
 C         -1.3376710673        2.4823077318       -2.7336353158
 C         -2.3202833846        1.5100392799       -2.6907858462
 C         -2.5762575276        0.8516198887       -1.4915390071
 C         -1.8428129621        1.1753880630       -0.3606992107
 H         -2.0415734613        0.6643272119        0.5700246013
 N         -3.5704561828       -0.1267926214       -1.4219941223
 S         -3.8433449958       -1.1047818613       -0.1131706920
 O         -4.7971606411       -2.0777846442       -0.6056460725
 O         -4.2812233925       -0.3234309815        1.0173866758
 C         -2.3175994114       -1.9456932412        0.2684329616
 C         -2.0824418880       -2.2916806871        1.5829658966
 C         -0.9443637133       -3.0154686299        1.8957852652
 C         -0.0636832215       -3.3801305968        0.8912560189
 C         -0.3085720199       -3.0186223052       -0.4243318327
 C         -1.4476235274       -2.2974538133       -0.7436356900
 H         -1.6567716625       -2.0048100173       -1.7600115128
 H          0.3825263560       -3.2961312400       -1.2055860668
 H          0.8205921504       -3.9454323036        1.1416613294
 H         -0.7441102406       -3.2809871486        2.9211506697
 H         -2.7834128188       -1.9742732124        2.3382889091
 H         -3.9657647254       -0.4542975980       -2.2882500089
 H         -2.8883026471        1.2605943304       -3.5736590961
 H         -1.1377431701        2.9944841952       -3.6626457077
 H          0.1784037362        3.5410136045       -1.6578807718
 H         -0.6589966501        2.1308477837        1.7053698378
 C          0.4886541898        3.7842574336        0.9923731750
 C         -0.4777715505        4.8697155858        1.3562250283
 C          0.5349594235        4.4011310080        2.3564728088
 H          1.3609001612        5.0528305093        2.5992465170
 H          0.1917118597        3.8037539928        3.1889938038
 H         -0.3499454242        5.8454343149        0.9132405318
 H         -1.5090041415        4.5875389708        1.5091916101
 H          1.2947049889        4.0295348686        0.3137745052
