  62
        -98.93996994
 C         -1.3668108816       -1.8479239143       -0.4557510875
 C         -0.2822272153       -1.7442712872       -1.3614003153
 C          0.9932890174       -2.3616399092       -0.9660502389
 C          1.0872451296       -2.9514478768        0.2398770027
 C          2.2373064256       -3.6820702852        0.8999793286
 C          3.6663884363       -3.5091525344        0.3923372538
 C          4.2401208050       -2.1048638223        0.5676376582
 H          5.2472161999       -2.0956929137        0.1437063151
 H          4.3245651437       -1.8893255544        1.6359237470
 C          3.4253400157       -0.9808981957       -0.0691108603
 H          3.9794410441       -0.0469945912        0.0680920155
 H          2.4790702290       -0.8601580405        0.4641554679
 C          3.1536951010       -1.1484415953       -1.5635483269
 H          4.0917240971       -1.3578557701       -2.0815361731
 H          2.7741090630       -0.1928327352       -1.9309577204
 C          2.1293070990       -2.2360372298       -1.9407797554
 H          2.6108921696       -3.2028594713       -2.0752772664
 H          1.6785506838       -1.9585445393       -2.8980412023
 H          3.7407979040       -3.8182551137       -0.6461240488
 H          4.2869317302       -4.1952499319        0.9754923221
 H          1.9806834855       -4.7469628278        0.8589486682
 H          2.1964797146       -3.3936038499        1.9553634552
 O          0.0219135251       -3.0226928023        1.0850478623
 C         -1.2121996270       -2.4582871594        0.7889267037
 O         -2.0494862302       -2.5968631707        1.6992694063
 O         -0.3828504304       -1.1577884516       -2.4741882127
 C         -2.6492356736       -1.1437347495       -0.8679040730
 C         -2.5083127588        0.3367562703       -0.6086548457
 C         -2.9786758753        1.2847086390       -1.5101401651
 C         -2.7926889195        2.6353962597       -1.2722306571
 C         -2.0914780870        3.0643348392       -0.1589994488
 C         -1.6056966362        2.1231381584        0.7403433178
 C         -1.8524962552        0.7749846471        0.5324545816
 H         -1.4798286883        0.0598365767        1.2498828021
 N         -0.8065054716        2.4907550090        1.8444891197
 S          0.7679103346        1.9019993089        1.7983355972
 O          0.7651465303        0.4656631724        1.8856341305
 O          1.4628129924        2.6100681519        2.8516510408
 C          1.3680894839        2.4429662142        0.2085451113
 C          2.0663790728        3.6326239696        0.1279717248
 C          2.4488267099        4.1034962158       -1.1175141515
 C          2.1117920037        3.3906738941       -2.2588512083
 C          1.4067761031        2.2013571755       -2.1614259405
 C          1.0327991317        1.7183157139       -0.9170552818
 H          0.4929162123        0.7901589459       -0.8176670545
 H          1.1343582291        1.6368939336       -3.0396469928
 H          2.4002683392        3.7615123918       -3.2296512413
 H          3.0012403404        5.0259893892       -1.1955083294
 H          2.3030264162        4.1542773315        1.0413561419
 H         -0.7803699707        3.4876719759        2.0130542639
 H         -1.9089496345        4.1151773121        0.0073568910
 H         -3.1698669697        3.3611541163       -1.9760097844
 H         -3.4735332905        0.9568564001       -2.4122043135
 H         -2.7185503826       -1.2755724713       -1.9603521593
 C         -3.9095103192       -1.7315759385       -0.2549581861
 C         -4.6360469638       -1.0836679723        0.8813714959
 C         -5.2422126508       -1.0832368243       -0.4880820848
 H         -6.0951473333       -1.7177416632       -0.6747495746
 H         -5.2597401561       -0.1467321532       -1.0237611071
 H         -5.0506698296       -1.7268129592        1.6421260052
 H         -4.2419441443       -0.1568703104        1.2697948349
 H         -3.8890483717       -2.8161551624       -0.2527149317
