  62
        -98.94061739
 C          1.8404710652       -1.1192192959       -0.2116032231
 C          2.1485351755       -0.0746729346        0.6963655053
 C          3.5811820077        0.1946447749        0.8949541013
 C          4.5044812355       -0.5439454608        0.2556678543
 C          5.9972399235       -0.4075855205        0.3839695594
 C          6.6046229221        0.6762786461       -0.5170361390
 C          6.3179575235        2.1155469414       -0.0870030041
 H          6.5875981414        2.2409677645        0.9621585232
 H          6.9761035854        2.7616387733       -0.6714091109
 C          4.8659663883        2.5642149864       -0.3047981626
 H          4.3731171465        1.8809119496       -1.0003981315
 H          4.8556426821        3.5530107753       -0.7689280945
 C          4.0315103318        2.6557332191        0.9729330116
 H          4.4366247302        3.4372984115        1.6196883578
 H          3.0127891274        2.9412325090        0.6971981077
 C          3.9570825496        1.3491922050        1.7737096117
 H          4.9078090198        1.1575142375        2.2708857251
 H          3.1791988887        1.4579454091        2.5335436978
 H          6.2467754675        0.5232807903       -1.5378385443
 H          7.6871089266        0.5290936413       -0.5190385164
 H          6.2594890958       -0.2074214554        1.4232647021
 H          6.4232120487       -1.3715204729        0.0970740524
 O          4.1689235769       -1.5469355517       -0.5982713502
 C          2.8430156131       -1.8314446450       -0.8785635239
 O          2.6859455562       -2.7327353660       -1.7259638503
 H         -1.3441124798       -0.1103993637        1.0031090351
 C         -1.2445457439        0.3239947248        0.0204912797
 C         -0.3805104359       -0.2502211673       -0.8984533383
 C         -0.2469353827        0.3474193253       -2.1473840422
 C         -0.9654935936        1.4842898671       -2.4714882991
 C         -1.8293410061        2.0530427698       -1.5514840869
 C         -1.9539989974        1.4729121900       -0.2979159415
 N         -2.8599207433        2.0382708130        0.6350021693
 S         -4.4581095796        1.6541814605        0.3106717687
 O         -4.8384410756        2.2762678448       -0.9314376578
 O         -5.2142340704        2.0370277219        1.4813736071
 C         -4.4482068223       -0.1209748175        0.1296628197
 C         -4.6068089458       -0.9063775183        1.2539490440
 C         -4.4892442746       -2.2816380301        1.1331729470
 C         -4.2015527798       -2.8432672435       -0.1016555159
 C         -4.0428640467       -2.0405092189       -1.2211116462
 C         -4.1646136073       -0.6649820611       -1.1071629609
 H         -4.0471009839       -0.0073453348       -1.9529399038
 H         -3.8150876705       -2.4798960605       -2.1790649810
 H         -4.0990672270       -3.9134656605       -0.1926668161
 H         -4.6137317689       -2.9099140676        2.0006184112
 H         -4.8284147791       -0.4291263790        2.1952759556
 H         -2.6429414415        1.7785859023        1.5876592435
 H         -2.4126019855        2.9283559559       -1.7873577445
 H         -0.8530091456        1.9312984841       -3.4476837561
 H          0.4313477660       -0.0919838274       -2.8662120237
 C          0.4116741187       -1.4908186027       -0.5755615481
 H          0.5032123121       -2.0833693223       -1.4994660987
 C         -0.2961275634       -2.3776913477        0.4392091208
 C          0.4365175610       -3.5012140272        1.1074865883
 C         -0.0211523857       -2.3223942778        1.9104471692
 H         -0.8521457503       -2.4573775186        2.5876409357
 H          0.7181241883       -1.6207602162        2.2630506913
 H          1.4920565296       -3.5983476158        0.8979241308
 H         -0.0719815428       -4.4442710189        1.2373266324
 H         -1.3234223762       -2.5745228403        0.1463001691
 O          1.2950603462        0.6016845967        1.3249949572
