  62
        -98.93138191
 C          1.9030086460        0.5426569351        0.7026734344
 C          2.4825501238        0.3175323238       -0.5696696654
 C          3.1520561031       -0.9814761029       -0.7433285239
 C          3.1372084023       -1.8748844267        0.2616095265
 C          3.8291703205       -3.2066974302        0.2368217669
 C          5.2553934773       -3.1015213990        0.7956892971
 C          6.0707292829       -1.9547552126        0.1978797969
 H          5.6224374849       -1.0050730207        0.4988374315
 H          7.0660192245       -1.9966236286        0.6456316161
 C          6.1955800462       -1.9937673454       -1.3315933895
 H          7.2334277434       -1.7895170939       -1.6028399270
 H          5.9554568213       -2.9928051365       -1.6969333923
 C          5.3328696369       -0.9651334892       -2.0650419202
 H          5.5016805148        0.0262665611       -1.6375439245
 H          5.6570300009       -0.9318020554       -3.1084676974
 C          3.8232960142       -1.2380067759       -2.0634993775
 H          3.3588028543       -0.5466728264       -2.7726191120
 H          3.6321745782       -2.2582506454       -2.4018548178
 H          5.7673800292       -4.0482662729        0.6142506490
 H          5.1927204744       -2.9502220031        1.8758881017
 H          3.2563344285       -3.9026432794        0.8521205233
 H          3.8544800135       -3.5774094882       -0.7859990143
 O          2.5251580930       -1.6408149384        1.4524420392
 C          1.9089081620       -0.4273850183        1.7049085785
 O          1.4118954113       -0.3319907845        2.8476258425
 H         -0.9312353194        0.4493170266        0.6917253977
 C         -0.9037419863        1.2458392315       -0.0401339841
 C          0.1728895511        2.1316603352       -0.0406058125
 C          0.1919735610        3.1254172405       -1.0098642902
 C         -0.8434195702        3.2371496183       -1.9237788912
 C         -1.9187214577        2.3718267791       -1.8986870168
 C         -1.9392225458        1.3526360366       -0.9515260476
 N         -2.9906756307        0.4216995937       -0.9330383864
 S         -3.3833356348       -0.3734600520        0.4982340396
 O         -3.4638168740        0.5696944070        1.5915285216
 O         -2.4841549540       -1.4879040215        0.6708619136
 C         -5.0141480930       -0.9680936606        0.0890493543
 C         -6.1173108291       -0.2340093488        0.4825585493
 C         -7.3814876382       -0.6840232873        0.1354571697
 C         -7.5205011250       -1.8529153227       -0.5976750123
 C         -6.4042625641       -2.5800166133       -0.9841283077
 C         -5.1373586161       -2.1358918060       -0.6398110790
 H         -4.2414814220       -2.6709856686       -0.9091476101
 H         -6.5161111658       -3.4902402449       -1.5508457122
 H         -8.5050150824       -2.2014194140       -0.8668889939
 H         -8.2508527612       -0.1227593488        0.4377657435
 H         -5.9599090980        0.6630524405        1.0594927191
 H         -3.8085299680        0.7335199352       -1.4379904869
 H         -2.7240053662        2.4669867131       -2.6107431425
 H         -0.8073707379        4.0183039382       -2.6680979047
 H          1.0183656784        3.8071746138       -1.0887172306
 C          1.2063610099        1.8595894773        1.0265346592
 H          0.6373635466        1.6557422475        1.9497081021
 C          2.2504279758        2.8942326736        1.4210217875
 C          3.1215861185        3.6585874526        0.4734524011
 C          2.0931368647        4.3794019872        1.2949008589
 H          2.4415668575        4.9895169766        2.1153093406
 H          1.2076923620        4.7626897881        0.8152160256
 H          4.1617729489        3.7798938063        0.7412033799
 H          2.9693684673        3.5124794165       -0.5832548124
 H          2.7449570479        2.5508996548        2.3282681324
 O          2.4535553488        1.1469667332       -1.5130544060
