  62
        -98.93687757
 C         -2.4133292475       -1.0830871355       -0.2072261948
 C         -2.4820777499        0.1439125527        0.4982123365
 C         -3.8342790124        0.5864424713        0.8713098321
 C         -4.8981866281       -0.1876434400        0.5950478450
 C         -6.3326559752        0.1225267523        0.9263002927
 C         -7.0286482733        1.0218013213       -0.1046320011
 C         -6.5892235126        2.4864843715       -0.0923061773
 H         -7.3032669432        3.0400384389       -0.7052339303
 H         -6.6598932671        2.8772037350        0.9232168638
 C         -5.1763976825        2.7295974107       -0.6415676485
 H         -4.8535752893        1.8592591257       -1.2178730432
 H         -5.1933095343        3.5780248314       -1.3294170737
 C         -4.1251433055        3.0333780069        0.4261184482
 H         -4.3685048867        3.9755206527        0.9222127727
 H         -3.1580933905        3.1548563562       -0.0693063405
 C         -3.9767433385        1.9421124930        1.4946639345
 H         -4.8286247959        1.9621664913        2.1738735197
 H         -3.0662944387        2.1410924121        2.0653800795
 H         -8.1006715095        0.9848072710        0.1020550350
 H         -6.8676304426        0.6014785593       -1.1001070236
 H         -6.8576777278       -0.8345147568        0.9589791664
 H         -6.3896852866        0.5847535628        1.9120726762
 O         -4.7814111948       -1.3949365412       -0.0203216538
 C         -3.5491017912       -1.8608186401       -0.4479413451
 O         -3.5927235970       -2.9738431569       -1.0097313008
 O         -1.4834488208        0.8425041720        0.8084027392
 C         -1.0930503851       -1.6472326321       -0.7011306429
 C         -0.0325171494       -1.5251212764        0.3649224233
 C         -0.2166092333       -2.2003977242        1.5693185641
 C          0.7313293822       -2.1302245753        2.5710210081
 C          1.8946477434       -1.4038123221        2.3855940138
 C          2.0851775454       -0.7225235577        1.1899405278
 C          1.1238396302       -0.7830921824        0.1907044215
 H          1.2902826858       -0.2252302671       -0.7155911937
 N          3.2422315668        0.0440131620        0.9778348296
 S          3.8895660938        0.1055655077       -0.5783275081
 O          3.2355759471        1.1497779766       -1.3258103028
 O          3.8710050180       -1.2122066074       -1.1741907689
 C          5.5662530271        0.5908107933       -0.2098515157
 C          6.5385529203       -0.3831635283       -0.0808753858
 C          7.8320161338       -0.0014293138        0.2388876497
 C          8.1292853921        1.3401323133        0.4262986736
 C          7.1433134685        2.3064309502        0.2920634448
 C          5.8481535335        1.9316958840       -0.0285070640
 H          5.0512270595        2.6466794816       -0.1512460816
 H          7.3787338227        3.3486981439        0.4351920147
 H          9.1364208067        1.6348274697        0.6755246753
 H          8.6013438438       -0.7498350866        0.3402537740
 H          6.2632384917       -1.4126632783       -0.2446939943
 H          3.9540052386       -0.1096059008        1.6785830049
 H          2.6403205723       -1.3537311563        3.1646094574
 H          0.5698914290       -2.6542859197        3.5012602003
 H         -1.1223768746       -2.7757135474        1.7098459554
 H         -1.2821994975       -2.7226686280       -0.8598345373
 C         -0.6480388681       -1.0838363765       -2.0428251776
 C         -1.6470042101       -0.6664170919       -3.0790828524
 C         -0.8031486338        0.3639168178       -2.3937864873
 H         -0.0095936844        0.8412475561       -2.9509337296
 H         -1.2654248944        1.0080028672       -1.6624492847
 H         -1.4409928976       -0.8994252254       -4.1129081085
 H         -2.6934110927       -0.7286286916       -2.8169892459
 H          0.2478152809       -1.5773242483       -2.4106209136
