  62
        -98.94430237
 C          1.8107517712        0.6165023118       -0.1387744331
 C          2.9243777486        1.2829778913        0.4259759388
 C          4.2354392323        0.9343809283       -0.1365324206
 C          4.3027850165        0.0407589826       -1.1404442062
 C          5.5759077206       -0.4444169412       -1.7700943001
 C          6.1013516913       -1.7016085195       -1.0629163361
 C          6.1618154282       -1.5742015868        0.4592919797
 H          5.1451610886       -1.4856239873        0.8491437875
 H          6.5739720431       -2.5081067487        0.8476357643
 C          7.0034063850       -0.3940397053        0.9647938053
 H          7.6363439598       -0.7412087612        1.7841741941
 H          7.6643737505       -0.0440466053        0.1711208786
 C          6.1873989233        0.7838183098        1.5005703010
 H          5.4591261446        0.4226814794        2.2310878738
 H          6.8689641315        1.4588060731        2.0249301090
 C          5.4425755054        1.6135790020        0.4471526941
 H          5.0688625458        2.5162629743        0.9391761962
 H          6.1350367151        1.9139741935       -0.3416878310
 H          5.4434581265       -2.5379838533       -1.3105231392
 H          7.0965804732       -1.9256784713       -1.4512032355
 H          5.3726136563       -0.6843476088       -2.8151167338
 H          6.3211704338        0.3475044101       -1.7275442918
 O          3.2090067929       -0.5651511274       -1.6702134620
 C          1.9373476264       -0.3036780597       -1.1791299363
 O          1.0278170438       -0.9405175716       -1.7440961990
 O          2.8259166932        2.1247416105        1.3589291984
 C          0.4252879003        0.9237851808        0.3986395310
 C         -0.2559379476       -0.3378023845        0.8659355236
 C          0.4499687953       -1.2287978110        1.6706276834
 C         -0.1353467197       -2.3990788069        2.1113692238
 C         -1.4398535249       -2.7041330903        1.7650678550
 C         -2.1611268235       -1.8134869270        0.9792407784
 C         -1.5716789477       -0.6335024087        0.5444241321
 H         -2.1430861246        0.0357985530       -0.0760096785
 N         -3.4999646793       -2.0748658100        0.6693429331
 S         -4.2825512364       -1.4219644943       -0.6493850189
 O         -5.5019105721       -2.1974096419       -0.7486792403
 O         -3.4580282521       -1.3950637695       -1.8341353474
 C         -4.6979386199        0.2359222173       -0.1467371835
 C         -4.7448002838        1.2260530541       -1.1079923406
 C         -5.1137153247        2.5092605469       -0.7348922225
 C         -5.4263229758        2.7795160521        0.5882434480
 C         -5.3750233131        1.7740889305        1.5414475264
 C         -5.0130358180        0.4879103412        1.1738341788
 H         -4.9633720563       -0.3147863318        1.8902374894
 H         -5.6171303363        1.9880995113        2.5699718183
 H         -5.7093652246        3.7794229095        0.8767765570
 H         -5.1545654124        3.2915452403       -1.4763128301
 H         -4.4800583869        0.9747829684       -2.1231857594
 H         -3.8382817521       -2.9935739155        0.9113349348
 H         -1.8958874236       -3.6233550293        2.0993800264
 H          0.4291436168       -3.0847472656        2.7254201208
 H          1.4719892754       -0.9947390110        1.9362606224
 H          0.5908517313        1.5697900217        1.2743003230
 C         -0.3759415726        1.6977023026       -0.6273306433
 C         -1.4067758619        2.6919474058       -0.1853982867
 C         -0.1184504649        3.1651929476       -0.7865729075
 H         -0.1337119683        3.5858357583       -1.7808212136
 H          0.6201490194        3.6095512758       -0.1355513310
 H         -2.3116478332        2.7877456218       -0.7660834237
 H         -1.5496336604        2.8238575719        0.8763025638
 H         -0.5693087165        1.1208726580       -1.5260577828
