  62
        -98.93370122
 C         -1.9287078567       -0.7224927327        0.7369336615
 C         -1.9896561074       -0.1291369781       -0.5475364545
 C         -2.0582140459        1.3388640072       -0.5699712161
 C         -1.9990120518        2.0213899154        0.5869094221
 C         -2.0846019897        3.5151405423        0.7084851625
 C         -3.5360719780        3.9797863563        0.8942866643
 C         -4.5113821238        3.3751539889       -0.1156025451
 H         -4.5756203311        2.2980356453        0.0544323916
 H         -5.4976497485        3.7944901506        0.0941399986
 C         -4.1460329189        3.6345807539       -1.5836768264
 H         -5.0476922087        3.9353933337       -2.1211252533
 H         -3.4379721511        4.4613750835       -1.6481082921
 C         -3.5736228054        2.4205455410       -2.3176523654
 H         -3.5541240423        2.6475735179       -3.3867460810
 H         -4.2344217491        1.5617771088       -2.1766192393
 C         -2.1532875811        2.0046885540       -1.9136767528
 H         -1.8019071097        1.2621489589       -2.6361339751
 H         -1.4851789966        2.8672698368       -1.9604590485
 H         -3.8625459071        3.6977106318        1.8979465230
 H         -3.5612649296        5.0685684316        0.8216709900
 H         -1.4973181926        3.8207728798        1.5763385115
 H         -1.6553603630        3.9681756442       -0.1831783909
 O         -1.9034382200        1.4176077472        1.8006604412
 C         -1.8639962758        0.0377144276        1.9027765872
 O         -1.7783209414       -0.3895546320        3.0747718599
 H          0.5756441457       -1.3162731282        1.1282223018
 C          0.5453033971       -2.0224552625        0.3091643316
 C         -0.6529364583       -2.6706812923        0.0124315179
 C         -0.6483492567       -3.5796206355       -1.0365547301
 C          0.5052351376       -3.7990239236       -1.7734230752
 C          1.6712220362       -3.1097792405       -1.5062110933
 C          1.6857716666       -2.2057752756       -0.4494361374
 N          2.8462146052       -1.4776456365       -0.1278040625
 S          2.6388758417        0.1037605130        0.4342007164
 O          2.4357570065        0.0616149852        1.8619687311
 O          1.6322141106        0.7916085923       -0.3422658176
 C          4.2550236206        0.7756379416        0.0879966290
 C          4.4435112207        1.5455960830       -1.0439328144
 C          5.7113031946        2.0344211558       -1.3189354507
 C          6.7638161573        1.7429503231       -0.4643961495
 C          6.5591537455        0.9688667926        0.6683651482
 C          5.2939152673        0.4788289600        0.9502304801
 H          5.0830559663       -0.1178421837        1.8223211865
 H          7.3788552097        0.7464562441        1.3321744899
 H          7.7492599174        2.1238437993       -0.6810793840
 H          5.8719049314        2.6393171124       -2.1967213324
 H          3.5928182064        1.7506321453       -1.6741215664
 H          3.5450954396       -1.5191901580       -0.8576898954
 H          2.5558164674       -3.2610983537       -2.1057477233
 H          0.4815263140       -4.5050906070       -2.5898590185
 H         -1.5396806663       -4.1077382250       -1.3213021152
 C         -1.8107170543       -2.2372751009        0.8821322564
 H         -1.4927059010       -2.3996009304        1.9265454224
 C         -3.1952232068       -2.8558097538        0.7715929550
 C         -3.8891353413       -3.2095149922       -0.5060748057
 C         -3.4860429104       -4.2916604291        0.4526008463
 H         -4.2675801098       -4.7776110195        1.0181486785
 H         -2.6646414270       -4.9433404915        0.2052346341
 H         -4.9391375749       -2.9670137452       -0.5874840066
 H         -3.3477166821       -3.0688736878       -1.4270103865
 H         -3.8281885217       -2.4118900676        1.5382830213
 O         -1.9881945993       -0.7841847337       -1.6208707198
