  62
        -98.94508698
 C         -1.5434352518       -0.4530665179       -0.5815487266
 C         -2.7880026338       -1.0914655579       -0.3413834930
 C         -3.7486692756       -0.3606174294        0.4936004092
 C         -3.3962921270        0.8327220569        1.0049188678
 C         -4.2869080256        1.7051211223        1.8405958277
 C         -5.0800664796        2.6890089156        0.9690590646
 C         -5.7800214904        2.0336930418       -0.2215726702
 H         -6.3312274533        2.8172429925       -0.7458983754
 H         -5.0246955329        1.6535684640       -0.9130365544
 C         -6.7403321245        0.8964805604        0.1537402160
 H         -7.6665908144        1.0195294792       -0.4114186090
 H         -6.9957430898        0.9612392348        1.2120359777
 C         -6.2131789895       -0.5060199304       -0.1550867207
 H         -5.8682538710       -0.5476276722       -1.1912054856
 H         -7.0436120384       -1.2103452339       -0.0579275365
 C         -5.0808243015       -1.0076604734        0.7499682643
 H         -5.3684953819       -0.8937257831        1.7972688602
 H         -4.9397676773       -2.0732513037        0.5468389360
 H         -4.3907538446        3.4457789212        0.5875221346
 H         -5.8185980192        3.1888365410        1.5985143267
 H         -3.6609724628        2.2689926895        2.5346029545
 H         -4.9687198517        1.0771918504        2.4111317669
 O         -2.1898975657        1.4059228569        0.7727515180
 C         -1.2342302307        0.7887687546       -0.0250858885
 O         -0.1939925097        1.4591027489       -0.1594437078
 O         -3.0838863092       -2.2228975474       -0.8115427373
 C         -0.5328982115       -1.2141720574       -1.4267674817
 C          0.4321326006       -1.9152199090       -0.4996333794
 C          0.1633785024       -3.2178113440       -0.0895468362
 C          1.0144571438       -3.8708842524        0.7820998319
 C          2.1442302842       -3.2355955269        1.2653085110
 C          2.4182939182       -1.9311547750        0.8690186922
 C          1.5681793914       -1.2822076180       -0.0158653572
 H          1.7762755617       -0.2655370081       -0.3001875716
 N          3.5703689754       -1.2770931958        1.3272533502
 S          3.5331746198        0.3544541883        1.7197136440
 O          4.6585714530        0.5174120642        2.6193894504
 O          2.2467225164        0.7462450659        2.2433508039
 C          3.9198098910        1.1731943589        0.1876006951
 C          3.0061102857        2.0119361197       -0.4172251259
 C          3.3561952018        2.6244446201       -1.6117547190
 C          4.6020623998        2.3925737007       -2.1729105973
 C          5.5094207933        1.5496807682       -1.5480780401
 C          5.1674573234        0.9336625067       -0.3559157063
 H          5.8437184102        0.2789017816        0.1678847221
 H          6.4778483303        1.3713609865       -1.9869559720
 H          4.8656595402        2.8717440886       -3.1027758859
 H          2.6461753538        3.2755872353       -2.0969059655
 H          2.0347406685        2.1544343437        0.0315145018
 H          4.1150931479       -1.8023695681        1.9958621689
 H          2.8094960342       -3.7419650935        1.9484610942
 H          0.7952874562       -4.8816119930        1.0920061011
 H         -0.7312734283       -3.7051584662       -0.4498062671
 H         -1.1185039644       -1.9906015447       -1.9382829920
 C          0.1606390071       -0.3673050564       -2.4726480563
 C          0.9155755183       -1.0530592427       -3.5706921472
 C         -0.3719587936       -0.3486000319       -3.8729504335
 H         -0.3373153046        0.5795644719       -4.4232766019
 H         -1.2444309095       -0.9490419977       -4.0862377868
 H          1.8382297330       -0.6116447507       -3.9141653589
 H          0.9147784856       -2.1326274754       -3.5753719896
 H          0.5636237741        0.5597984204       -2.0878601613
