  62
        -98.93809392
 C         -2.0386853018       -0.7614631757        0.6000045071
 C         -1.9860962904       -0.0100161996       -0.5973359963
 C         -1.9872113165        1.4542944410       -0.4485666078
 C         -1.9916500499        1.9924875554        0.7823308179
 C         -1.9245199224        3.4491209472        1.1698472222
 C         -2.7807207624        4.4383709425        0.3666494020
 C         -4.1109542100        3.8735694018       -0.1529008578
 H         -4.3149856034        2.9094969847        0.3158899086
 H         -4.9181089707        4.5518926963        0.1294321402
 C         -4.1389747447        3.7171298621       -1.6751829602
 H         -3.6866012104        4.6029116046       -2.1260203906
 H         -5.1797956338        3.6766130818       -2.0047629811
 C         -3.4435076084        2.4695552132       -2.2189477055
 H         -4.0227976359        1.5792957842       -1.9598889741
 H         -3.4312225558        2.5385150271       -3.3092378316
 C         -2.0050540236        2.2452436429       -1.7243255743
 H         -1.4814660620        1.6299704627       -2.4611981103
 H         -1.4683616149        3.1851816985       -1.6199457404
 H         -2.2028631053        4.8172932238       -0.4750771266
 H         -2.9766938429        5.2886107447        1.0221589679
 H         -2.2210189928        3.4766288007        2.2214247432
 H         -0.8754976699        3.7576324235        1.1235994389
 O         -2.0253748686        1.2287873471        1.9129071972
 C         -2.0380377324       -0.1534955874        1.8522385913
 O         -2.0562496875       -0.7190841919        2.9666289278
 H          0.4382925311       -1.2469007866        0.9584709553
 C          0.4691427668       -2.0105257155        0.1933297446
 C         -0.6962405511       -2.6822236654       -0.1539453323
 C         -0.6260891620       -3.6743599762       -1.1228912221
 C          0.5760627969       -3.9528636023       -1.7509475748
 C          1.7214605345       -3.2438524085       -1.4405022054
 C          1.6651928974       -2.2637953062       -0.4551753955
 N          2.8095010343       -1.5311990553       -0.0923650529
 S          2.5994876781        0.0789037048        0.3758990082
 O          2.2755202867        0.1136276516        1.7815304565
 O          1.6819001031        0.7522485411       -0.5146573913
 C          4.2566329470        0.6933527090        0.1321554440
 C          5.1987960255        0.4816161621        1.1209408223
 C          6.4954218049        0.9265147071        0.9169834032
 C          6.8268971371        1.5707981325       -0.2658186014
 C          5.8702798902        1.7778930301       -1.2482911601
 C          4.5718385345        1.3345246413       -1.0510218657
 H          3.7918456395        1.4799139111       -1.7813441246
 H          6.1294501297        2.2821248086       -2.1652441948
 H          7.8364560878        1.9165696013       -0.4217247519
 H          7.2406640824        0.7699961357        1.6799884772
 H          4.8905092683       -0.0154031049        2.0259802303
 H          3.5631890611       -1.6272466495       -0.7596546334
 H          2.6504527971       -3.4432639113       -1.9525535593
 H          0.6161641386       -4.7206466979       -2.5087020764
 H         -1.5148821089       -4.2184053910       -1.3977289083
 C         -1.9740812704       -2.2773414037        0.5423485755
 H         -1.9221969032       -2.6205798091        1.5866482729
 C         -3.2213628110       -2.8452360282       -0.1016718446
 C         -3.7201627715       -4.2045602574        0.2842387365
 C         -4.4637793317       -2.9805692680        0.7245863105
 H         -5.4152740197       -2.7587359227        0.2652432055
 H         -4.4006944603       -2.6859463238        1.7623620525
 H         -4.1663579443       -4.8255735827       -0.4777615633
 H         -3.1595161720       -4.7497731527        1.0284189048
 H         -3.3361323679       -2.5271521881       -1.1314663366
 O         -1.9360446195       -0.5362691038       -1.7400741916
