  62
        -98.94338995
 C         -1.8965057911       -0.6367127818       -0.7517703832
 C         -2.2379904740       -0.0999300719        0.5132919927
 C         -3.6693191130       -0.1139974275        0.8418150481
 C         -4.5515719193       -0.6402264656       -0.0271862960
 C         -6.0375061729       -0.7567256973        0.1802226791
 C         -6.8209652878        0.5135086351       -0.1777576705
 C         -6.6620065379        1.6737050645        0.8055670912
 H         -7.4262210892        2.4122830696        0.5553659302
 H         -6.8685418759        1.3218820331        1.8168264861
 C         -5.2861764051        2.3532547790        0.7650666118
 H         -5.4164431141        3.4377297204        0.7532265070
 H         -4.7735613477        2.0824412474       -0.1607906085
 C         -4.3783553042        2.0188689473        1.9487521923
 H         -3.4204195221        2.5228483335        1.7986258776
 H         -4.8211635899        2.4036377223        2.8701125331
 C         -4.1011018445        0.5206247064        2.1292977491
 H         -3.2830762556        0.4061455694        2.8447160200
 H         -4.9845362321        0.0193462514        2.5242920224
 H         -6.5216546009        0.8384492704       -1.1768867167
 H         -7.8785111045        0.2426193358       -0.2196659534
 H         -6.2423967248       -1.0324493109        1.2151111918
 H         -6.3787805415       -1.5658944992       -0.4691569350
 O         -4.1778743222       -1.1657590089       -1.2250470105
 C         -2.8502537311       -1.1624331045       -1.6222307862
 O         -2.6490810664       -1.6581782594       -2.7502957001
 O         -1.3959890621        0.3602926674        1.3264545293
 C         -0.4457700904       -0.6563839701       -1.1942340533
 C          0.4033867263       -1.4311050767       -0.2151263959
 C         -0.0904006967       -2.6125296614        0.3320409042
 C          0.6646008264       -3.3491345438        1.2232643874
 C          1.9392511913       -2.9373208203        1.5702722977
 C          2.4500263176       -1.7706303406        1.0165965417
 C          1.6810340244       -1.0221714208        0.1352316825
 H          2.0962891538       -0.1199757545       -0.2819205987
 N          3.7360264372       -1.3228219018        1.3514281154
 S          4.7257299946       -0.6610237988        0.1771044394
 O          4.4906123610       -1.2554328535       -1.1179360480
 O          6.0656572443       -0.8066560490        0.7063362817
 C          4.3126091852        1.0703749437        0.1457026245
 C          4.3712586323        1.7460708544       -1.0570624351
 C          4.1016390166        3.1057873276       -1.0775285417
 C          3.7791037317        3.7626353229        0.0997770354
 C          3.7261256842        3.0695754421        1.2996984144
 C          3.9994496400        1.7113512979        1.3278943155
 H          3.9634986842        1.1435158095        2.2424838242
 H          3.4715053477        3.5828806403        2.2129958335
 H          3.5667638151        4.8200370333        0.0814989532
 H          4.1428265928        3.6456969342       -2.0103714695
 H          4.6141369136        1.1938331984       -1.9509805636
 H          4.2494059079       -1.9271116517        1.9763073829
 H          2.5325515661       -3.5137670491        2.2637954643
 H          0.2614574997       -4.2571727327        1.6461842881
 H         -1.0818570095       -2.9435004684        0.0532807978
 H         -0.4254239993       -1.1947499311       -2.1540255051
 C          0.0416853839        0.7605132732       -1.4207191363
 C          1.0799038044        1.0522885957       -2.4606847826
 C         -0.3436832125        1.4611550248       -2.6876855760
 H         -0.5926778843        2.5105816418       -2.6425537593
 H         -0.9312769081        0.9025971435       -3.4021841015
 H          1.8067506796        1.8240307717       -2.2565943387
 H          1.4695845463        0.2197973710       -3.0276469369
 H          0.0537516957        1.3446617947       -0.5075216973
