  62
        -98.93739071
 C          2.4535082904        0.9144411746        0.1684115102
 C          3.0222306563        0.0640889015        1.1499458485
 C          4.4477694092       -0.2438443079        0.9960669317
 C          5.1398172804        0.3016507271       -0.0204339954
 C          6.6046936017        0.1050822004       -0.3026592648
 C          6.9216809137       -1.1710688793       -1.0943287234
 C          6.7829657018       -2.4755585026       -0.3084602053
 H          7.2416825459       -3.2624692328       -0.9104201234
 H          7.3514757460       -2.4017805016        0.6190371453
 C          5.3343876597       -2.8761078815        0.0044670144
 H          4.6532616999       -2.3198754493       -0.6438312128
 H          5.1927851506       -3.9360020760       -0.2186390352
 C          4.9158369022       -2.6607256667        1.4590314928
 H          5.5006327038       -3.3145837229        2.1099105570
 H          3.8636054869       -2.9404297316        1.5578380650
 C          5.0688040035       -1.2161605540        1.9529295789
 H          4.5451780365       -1.1227446448        2.9075836203
 H          6.1216222545       -0.9798783895        2.1062120246
 H          6.2756142993       -1.2053653269       -1.9745868328
 H          7.9538598164       -1.0901027028       -1.4426735393
 H          6.9247242739        0.9657777334       -0.8937604057
 H          7.1608821356        0.1008527802        0.6350903462
 O          4.5675611943        1.1366190380       -0.9262680200
 C          3.2148134816        1.4508098990       -0.8722486182
 O          2.8399698975        2.1982619977       -1.7950257069
 H         -1.6846871315        1.0303751003        0.4090614291
 C         -1.2816490450        0.5179416952       -0.4492666894
 C          0.0893710472        0.5105209846       -0.6758503923
 C          0.5723719716       -0.1729952228       -1.7837038123
 C         -0.2963051333       -0.8252546572       -2.6419441355
 C         -1.6581183149       -0.8213523469       -2.4074250516
 C         -2.1549936160       -0.1403569141       -1.3008672032
 N         -3.5360311323       -0.0929033672       -1.0501055897
 S         -4.0700521555       -0.1115667236        0.5525909098
 O         -3.9583595091        1.2182908128        1.0958785157
 O         -3.3997748841       -1.1619234382        1.2859427929
 C         -5.7882606473       -0.5207755426        0.3091569374
 C         -6.6713639412        0.4900394263       -0.0207728050
 C         -8.0015950244        0.1709868191       -0.2421111898
 C         -8.4243890093       -1.1454090348       -0.1308045386
 C         -7.5271489478       -2.1484791876        0.2039132413
 C         -6.1948799829       -1.8366493296        0.4252805743
 H         -5.4641547062       -2.5816729837        0.6967503120
 H         -7.8596703133       -3.1700829308        0.2938010053
 H         -9.4604476265       -1.3908387056       -0.3029350062
 H         -8.7028013344        0.9484203722       -0.4992338661
 H         -6.2989823030        1.4989972601       -0.0864148519
 H         -4.0581934191       -0.7446404619       -1.6201212124
 H         -2.3310405030       -1.3375045634       -3.0750393954
 H          0.0973555118       -1.3500391851       -3.4995286705
 H          1.6343782996       -0.1891147017       -1.9777575389
 C          0.9823604644        1.2446184127        0.3010501287
 H          0.6996190693        0.9072973683        1.3100259546
 C          0.7309040460        2.7406761453        0.2106879659
 C         -0.3106941271        3.3989373319        1.0621094974
 C          1.1425611187        3.6223642430        1.3506563343
 H          1.5773934573        4.5847979655        1.1275387129
 H          1.5676644442        3.1414216833        2.2200871222
 H         -0.8825188151        4.2087291455        0.6352245975
 H         -0.8735160469        2.7853372290        1.7502118929
 H          0.8810862766        3.1280267780       -0.7899401572
 O          2.3670021658       -0.4101745665        2.1183340363
