  62
        -98.94312123
 C          1.4897497809        1.3688842724       -0.3199080581
 C          1.5785971246       -0.0140409338       -0.6188822949
 C          2.6672705929       -0.7417897537        0.0508079713
 C          3.4733624931       -0.1073606016        0.9187609209
 C          4.6028773292       -0.7243829800        1.6984903455
 C          5.9196534878       -0.8301352635        0.9167107402
 C          5.9452284115       -1.8980652822       -0.1776531270
 H          6.9855705253       -2.0122494512       -0.4886738598
 H          5.6237632379       -2.8522090056        0.2411638288
 C          5.0951541790       -1.5623957948       -1.4109517210
 H          4.8653526905       -0.4944356336       -1.4139572500
 H          5.6697334086       -1.7698381269       -2.3164639412
 C          3.7882103631       -2.3490668033       -1.5125741288
 H          4.0083050047       -3.4111792062       -1.6409874609
 H          3.2489574624       -2.0065557029       -2.3991909195
 C          2.8611146228       -2.1857887053       -0.3012653821
 H          1.8812549976       -2.6001823940       -0.5522177901
 H          3.2558264012       -2.7342217069        0.5540929358
 H          6.1444168170        0.1455278565        0.4795956482
 H          6.7074634112       -1.0607077700        1.6376083389
 H          4.7676007368       -0.0812664095        2.5659415524
 H          4.3052741000       -1.7121927418        2.0525118517
 O          3.3345833947        1.2145414630        1.2084157095
 C          2.3539368733        1.9756647491        0.5950253746
 O          2.3536557128        3.1764594997        0.9375243651
 H         -0.7233355699        0.2644310487        0.4763156390
 C         -1.2527937248        1.1935944921        0.6018245505
 C         -0.7905120050        2.3409980387       -0.0258912350
 C         -1.4713873455        3.5357398502        0.1798959796
 C         -2.5942571459        3.5727258122        0.9873742009
 C         -3.0529479137        2.4262683358        1.6097541814
 C         -2.3676503618        1.2286491386        1.4270600754
 N         -2.7789658603        0.0745164442        2.0971684510
 S         -2.4049415255       -1.4856847012        1.6457408255
 O         -3.1766065083       -2.2924196495        2.5684506339
 O         -0.9795099019       -1.6931204401        1.6648628976
 C         -3.0846810685       -1.6853751650        0.0092975770
 C         -4.4572825908       -1.8313985578       -0.0786675772
 C         -5.0415257965       -1.9808123065       -1.3244791993
 C         -4.2454592358       -1.9856781188       -2.4606658421
 C         -2.8719872139       -1.8417311563       -2.3544477422
 C         -2.2786138709       -1.6850930676       -1.1097541821
 H         -1.2112319310       -1.5570383611       -1.0153580718
 H         -2.2470328245       -1.8464516754       -3.2329452911
 H         -4.6971113691       -2.1046867484       -3.4329220377
 H         -6.1103932960       -2.0952143140       -1.4068324546
 H         -5.0359368641       -1.8452927646        0.8305774338
 H         -3.6487286756        0.1399919835        2.6020858538
 H         -3.9213070986        2.4573493924        2.2495891394
 H         -3.1150898089        4.5057461434        1.1397273216
 H         -1.1026061074        4.4419950094       -0.2775263247
 C          0.4334548952        2.2900364924       -0.9077152913
 H          0.8842576374        3.2959265701       -0.8940319494
 C          0.0955976245        1.9639418008       -2.3566225656
 C         -1.1989165376        1.3423673006       -2.7759957438
 C         -0.9214746505        2.7771629005       -3.1016602613
 H         -0.7129126992        3.0453417661       -4.1263079778
 H         -1.4651675036        3.5281099785       -2.5499022365
 H         -1.1675926393        0.6123287284       -3.5692978306
 H         -1.9266592439        1.1201099992       -2.0106703848
 H          0.9761379279        1.6621521702       -2.9142336899
 O          0.8094669499       -0.6288624882       -1.4000256578
