  62
        -98.93935102
 C          1.1799080723        1.6153279105       -0.3952127144
 C          2.3952220040        1.5739579708        0.3343503764
 C          3.3100627471        0.4719061957        0.0122833638
 C          2.9660591027       -0.4188282036       -0.9349537024
 C          3.8000324941       -1.5714451166       -1.4291908940
 C          4.0882809195       -2.6912429294       -0.4101347557
 C          5.4194746876       -2.5381772058        0.3360176082
 H          5.8834458018       -3.5218165989        0.4334688243
 H          6.0955441050       -1.9326958009       -0.2688843416
 C          5.3271481524       -1.9468573730        1.7460832417
 H          6.3350182430       -1.6620341965        2.0557954940
 H          4.9793055487       -2.7199114751        2.4352519699
 C          4.4009796587       -0.7407881556        1.9060838677
 H          4.5788743519       -0.3035996394        2.8906653629
 H          3.3599259875       -1.0722253706        1.9004038063
 C          4.5653892786        0.3456472562        0.8254926506
 H          4.7318509690        1.3165022364        1.2964605118
 H          5.4177297334        0.1250069775        0.1845109201
 H          4.1187759575       -3.6287556387       -0.9678471690
 H          3.2651023970       -2.7611696655        0.3002053303
 H          4.7456771504       -1.1793953235       -1.8103880532
 H          3.2500498077       -1.9873612982       -2.2756930391
 O          1.7907700522       -0.3429796810       -1.6132038806
 C          0.8624500015        0.6525188968       -1.3543350025
 O         -0.1689503497        0.5667187820       -2.0475692044
 O          2.7058333590        2.4271918101        1.2075330883
 C          0.1959982188        2.7260192668       -0.0612424084
 C         -0.9546545409        2.1045752749        0.6892732490
 C         -0.8955160096        1.9878926614        2.0747543668
 C         -1.8947406523        1.3344439644        2.7732319831
 C         -2.9631504059        0.7636700520        2.1029095545
 C         -3.0205780529        0.8623669838        0.7193568222
 C         -2.0376135637        1.5502187276        0.0230776020
 H         -2.0919951672        1.6077835062       -1.0522410721
 N         -4.0740453761        0.2305571629        0.0195764503
 S         -4.0961714496       -1.4419781399        0.1306544774
 O         -5.0037127154       -1.8878893708       -0.9022068532
 O         -4.4439403609       -1.8081053852        1.4810384022
 C         -2.4375574711       -1.9893073522       -0.2331116333
 C         -1.5011784009       -2.0281508449        0.7802639215
 C         -0.2111447240       -2.4342842057        0.4812744369
 C          0.1180113166       -2.7979784530       -0.8147075488
 C         -0.8320292004       -2.7455578911       -1.8216525481
 C         -2.1209401941       -2.3314528466       -1.5317428563
 H         -2.8889638794       -2.2794220528       -2.2868670102
 H         -0.5685488906       -3.0158798985       -2.8314712274
 H          1.1221481044       -3.1179288077       -1.0435201218
 H          0.5330597532       -2.4619387495        1.2623702853
 H         -1.7937348214       -1.7497946894        1.7796639914
 H         -4.0926558011        0.4870285065       -0.9584021325
 H         -3.7354475136        0.2219916647        2.6247412639
 H         -1.8383001549        1.2598420125        3.8487646728
 H         -0.0454694054        2.4025411549        2.5979490239
 H          0.7331676301        3.3930444822        0.6256584046
 C         -0.2281282773        3.5208532309       -1.2781192454
 C         -0.9238901353        4.8338847685       -1.0835264210
 C          0.4819467799        4.7998871148       -1.6010290495
 H          0.6568454685        5.0436684427       -2.6382478902
 H          1.2775383897        5.1114158800       -0.9402089657
 H         -1.7167846557        5.1042675894       -1.7639908437
 H         -1.0829873443        5.1672180066       -0.0691486718
 H         -0.5346322727        2.9053522188       -2.1143104679
