  62
        -98.94544655
 C         -2.5961240964        0.0654243969        0.5192334188
 C         -2.5075543419        0.7941906544       -0.6914555791
 C         -2.0588713925        2.1851893792       -0.5666639549
 C         -1.7408873211        2.6793824605        0.6432617369
 C         -1.2193795963        4.0620586676        0.9246324277
 C          0.2921283322        4.2001449567        0.6915609091
 C          0.7238534042        4.2623573278       -0.7747026744
 H          0.1156652225        4.9974102286       -1.3035977770
 H          1.7549729193        4.6211989138       -0.7864833835
 C          0.6669094115        2.9145678044       -1.5073986012
 H          1.5754266352        2.7885411957       -2.1020339270
 H          0.6517983212        2.1033971387       -0.7754380644
 C         -0.5147995638        2.7555486569       -2.4643690370
 H         -0.4053821153        3.4521570501       -3.2994221661
 H         -0.4936202381        1.7388504637       -2.8653007743
 C         -1.8902893516        2.9813078167       -1.8258424192
 H         -2.0438510749        4.0416444304       -1.6261302902
 H         -2.6520864958        2.6427459847       -2.5329267341
 H          0.7969897741        3.3617651029        1.1789829870
 H          0.6151434259        5.1202752846        1.1847013920
 H         -1.7542963637        4.7917775253        0.3157958782
 H         -1.4278057315        4.2656953528        1.9772077385
 O         -1.8699518363        1.9560887570        1.7882769756
 C         -2.2645378572        0.6292968586        1.7500238600
 O         -2.2933795530        0.0677057721        2.8669415879
 H         -0.3070130004       -0.8927753470        0.5823986494
 C         -0.5072671908       -1.6785692098       -0.1306439160
 C         -1.8143722092       -2.1101822956       -0.3170165576
 C         -2.0485151400       -3.1410879460       -1.2166692294
 C         -0.9957440635       -3.7028744794       -1.9202791297
 C          0.2992525421       -3.2492625335       -1.7516501760
 C          0.5437960513       -2.2156525446       -0.8521404615
 N          1.8343807955       -1.6808040171       -0.7021733140
 S          2.2559861485       -0.8339594295        0.6911169252
 O          2.0694330568       -1.6707451377        1.8576948403
 O          1.5887394627        0.4426061387        0.7002585098
 C          3.9942982612       -0.5927574757        0.3809471756
 C          4.3798400772        0.4721852554       -0.4108946350
 C          5.7269084119        0.6532907071       -0.6809147591
 C          6.6606714940       -0.2289625473       -0.1577256848
 C          6.2591530645       -1.2912904057        0.6381337113
 C          4.9130796436       -1.4786452717        0.9110076174
 H          4.5550080471       -2.2829503601        1.5334284477
 H          6.9877911190       -1.9724616448        1.0470933503
 H          7.7085457939       -0.0851047510       -0.3684780015
 H          6.0427461720        1.4804111588       -1.2959111838
 H          3.6172161938        1.1355615939       -0.7852359449
 H          2.5686785542       -2.3082984004       -0.9986052781
 H          1.1126436699       -3.6786115954       -2.3160304902
 H         -1.1894405402       -4.5039857134       -2.6174597553
 H         -3.0530585745       -3.4996021933       -1.3718911470
 C         -2.9000527971       -1.4214183751        0.4792157682
 H         -2.8360146795       -1.7753212996        1.5197687206
 C         -4.2952097336       -1.6853990018       -0.0455944262
 C         -5.0642730380       -2.8837824041        0.4210939373
 C         -5.4597012711       -1.5137879578        0.8812973992
 H         -6.3680575374       -1.0784419190        0.4931426730
 H         -5.2413155502       -1.2317413778        1.9014479919
 H         -5.7069973635       -3.3902820976       -0.2830710685
 H         -4.5870214784       -3.5378176467        1.1354950596
 H         -4.4192798725       -1.3611594369       -1.0720466429
 O         -2.7795546927        0.3085725429       -1.8207283060
