  62
        -98.94319207
 C          0.8275237268        1.6904044449       -0.8397439741
 C          1.9726194726        2.0583639912       -0.0866891304
 C          3.1170631143        1.1446905992       -0.1508703678
 C          3.0390617033        0.0349822996       -0.9071535488
 C          4.1278453264       -0.9869166687       -1.0937936271
 C          4.1973403367       -2.0392328189        0.0209730748
 C          4.7400540527       -1.5390741468        1.3599601730
 H          4.9415598571       -2.4193009101        1.9736100172
 H          5.6912369699       -1.0299782993        1.2014779314
 C          3.7796556143       -0.6153606159        2.1222639363
 H          3.7306188325       -0.9224619096        3.1693366139
 H          2.7722624064       -0.7156666858        1.7111415027
 C          4.1750303578        0.8611399080        2.1020273359
 H          5.1208161655        0.9960188492        2.6318587826
 H          3.4073238866        1.4301672568        2.6327788015
 C          4.3151208532        1.4553038270        0.6945769646
 H          4.3841489089        2.5421244426        0.7862783869
 H          5.2233602042        1.0862617930        0.2183806576
 H          4.8464133772       -2.8440176163       -0.3315359046
 H          3.1976273676       -2.4502104953        0.1689054029
 H          5.0903798813       -0.4817305434       -1.1814572294
 H          3.9160520292       -1.4961859690       -2.0361275651
 O          1.9343318723       -0.2742294155       -1.6331714198
 C          0.7967794261        0.5283398888       -1.6125640372
 O         -0.1262895882        0.0932982545       -2.3229194801
 O          2.0356562603        3.1132770944        0.6006381919
 C         -0.3726696128        2.6128961882       -0.7287763316
 C         -1.2472858863        2.2023763976        0.4288743551
 C         -1.6901722589        3.1398906233        1.3549054772
 C         -2.4893104625        2.7557778082        2.4169467123
 C         -2.8718344194        1.4351162110        2.5659590097
 C         -2.4309055586        0.4886013427        1.6476328930
 C         -1.6146305299        0.8743467279        0.5945747797
 H         -1.2749423788        0.1340472066       -0.1131362965
 N         -2.7792977714       -0.8624097392        1.7804689697
 S         -3.1082275869       -1.7686246416        0.4089041977
 O         -3.7282197857       -0.9630686050       -0.6160739405
 O         -3.9034304554       -2.8755000984        0.9027658318
 C         -1.5363901586       -2.4101211538       -0.1178384396
 C         -1.2613428809       -2.5100635312       -1.4658224028
 C         -0.0665702185       -3.0896503030       -1.8627432664
 C          0.8235622982       -3.5581075707       -0.9108718644
 C          0.5325070269       -3.4476188686        0.4412543920
 C         -0.6598423659       -2.8708885102        0.8451435180
 H         -0.9204764018       -2.7685644990        1.8857362037
 H          1.2286873579       -3.8112900045        1.1810451826
 H          1.7508729724       -4.0107461638       -1.2265474605
 H          0.1659942870       -3.1592402253       -2.9129789302
 H         -1.9687709909       -2.1154468309       -2.1770207616
 H         -3.4249342929       -1.0674328484        2.5293316760
 H         -3.5023527171        1.1337734955        3.3885944246
 H         -2.8238546666        3.4919909804        3.1319178966
 H         -1.3919007784        4.1721450302        1.2448415030
 H          0.0508172837        3.6005956317       -0.4836035470
 C         -1.1536254694        2.7710097641       -2.0245147774
 C         -2.4555300104        2.0888988424       -2.3044838633
 C         -2.4273867062        3.5639394638       -2.0456138898
 H         -2.6048303213        4.2378597027       -2.8701559173
 H         -2.8143056598        3.9106717341       -1.0991389064
 H         -2.6251236915        1.7414077179       -3.3126024107
 H         -2.8756102874        1.4321286709       -1.5578439398
 H         -0.4909045861        2.8944228056       -2.8758050750
