  62
        -98.93233677
 C          2.4554978448        1.3821053230       -0.3226954803
 C          2.1650631817        0.0379742678       -0.6491583544
 C          3.1991473801       -0.9615937668       -0.3125807202
 C          4.3203772450       -0.5610210634        0.3126873143
 C          5.5042038680       -1.3838589786        0.7543054093
 C          5.1931665961       -2.7185313639        1.4492474973
 C          5.5463633126       -3.9417263255        0.6015027372
 H          5.7096374797       -4.7923865452        1.2668892421
 H          6.4885163912       -3.7463066632        0.0852589465
 C          4.4860718337       -4.3508934282       -0.4192450346
 H          3.6300126415       -4.7834984122        0.1032770936
 H          4.9158791938       -5.1365906312       -1.0450244779
 C          3.9796587628       -3.2255743253       -1.3238296676
 H          3.5739579992       -3.6829412135       -2.2286957791
 H          4.8036558195       -2.5841321296       -1.6337109012
 C          2.8652662771       -2.3793501280       -0.6899002264
 H          2.4598895190       -2.8898635949        0.1890098962
 H          2.0297773664       -2.2875435133       -1.3910423082
 H          4.1442209836       -2.7491020027        1.7409350179
 H          5.7835026583       -2.7622062815        2.3659911528
 H          6.0623740197       -0.7339585720        1.4319984657
 H          6.1484892024       -1.5577811933       -0.1109986195
 O          4.5475880920        0.7467221396        0.6279472956
 C          3.6368068081        1.7399571948        0.3285576267
 O          3.9852105567        2.8831589652        0.6855167249
 O          1.0976960139       -0.3276476084       -1.2098766509
 C          1.4625065426        2.4971316770       -0.6116474750
 C          0.2600360908        2.2870887701        0.2761816630
 C          0.3548069583        2.6265965320        1.6233272639
 C         -0.6967698228        2.3860524722        2.4867933272
 C         -1.8626433348        1.7967917395        2.0281072296
 C         -1.9623510247        1.4458398673        0.6892498167
 C         -0.9087387202        1.7010658174       -0.1806610442
 H         -0.9928630676        1.4094816404       -1.2153320543
 N         -3.1438401224        0.8500061547        0.2053700968
 S         -3.8309933781       -0.3739512309        1.1461457271
 O         -4.5773262329        0.2407215159        2.2163789956
 O         -2.8233097110       -1.3291980939        1.5507575704
 C         -4.9549691902       -1.1050766164       -0.0272987532
 C         -6.2241590091       -0.5745127550       -0.1583550417
 C         -7.0867596782       -1.1258877398       -1.0923693889
 C         -6.6677715631       -2.1909990003       -1.8756894975
 C         -5.3906848535       -2.7126529350       -1.7326030909
 C         -4.5224085033       -2.1653324152       -0.8011035481
 H         -3.5234010929       -2.5437455390       -0.6511364598
 H         -5.0677530821       -3.5416489140       -2.3417010982
 H         -7.3408104611       -2.6195689715       -2.6013731653
 H         -8.0809188054       -0.7248159441       -1.2058915699
 H         -6.5070361856        0.2475706309        0.4779464110
 H         -3.0281320770        0.5303265309       -0.7475235411
 H         -2.6847159529        1.5887676023        2.6937336374
 H         -0.6092109488        2.6540014860        3.5293011069
 H          1.2733707580        3.0682363732        1.9857269572
 H          1.9565522740        3.4264873191       -0.2983036256
 C          1.1365741115        2.5918626450       -2.0869329035
 C          0.4734108212        3.8277470314       -2.6140095726
 C          1.9078997530        3.5476216001       -2.9444562000
 H          2.1572988771        3.2486587028       -3.9515271610
 H          2.6706202425        4.1442045340       -2.4655625302
 H         -0.2631450750        3.7257219402       -3.3961923508
 H          0.2602392797        4.6162940864       -1.9082497534
 H          0.8674617215        1.6405863246       -2.5285001928
