  62
        -98.94416264
 C         -2.6486843104       -1.0853186681        0.1908357355
 C         -2.7412844158       -0.2753206170       -0.9670098046
 C         -3.5400742050        0.9509328935       -0.8258989283
 C         -4.1237132539        1.2269673128        0.3546424788
 C         -4.9085274392        2.4710411837        0.6530438055
 C         -4.0035061606        3.5741907224        1.2199378474
 C         -2.7309020957        3.8084716406        0.4055902025
 H         -2.1839649337        4.6238597336        0.8842328152
 H         -2.0990237721        2.9190679522        0.4674202100
 C         -2.9759358623        4.1522032929       -1.0704028468
 H         -4.0076901392        4.4776345867       -1.2076309338
 H         -2.3320770459        4.9899997877       -1.3458332701
 C         -2.6694845761        3.0141623358       -2.0458668659
 H         -1.6681382981        2.6216610249       -1.8502459727
 H         -2.6673495832        3.4261099399       -3.0583692258
 C         -3.6567981312        1.8403269066       -2.0316166074
 H         -4.6767729522        2.2147755255       -2.1381204284
 H         -3.4298390685        1.2060475270       -2.8933822054
 H         -4.5788828299        4.5001182991        1.2731214433
 H         -3.7134160726        3.2961506865        2.2361074681
 H         -5.3927807478        2.8162197167       -0.2582077122
 H         -5.6742584309        2.2267231974        1.3911672048
 O         -4.0168434494        0.4199825533        1.4423049028
 C         -3.2673171289       -0.7447105894        1.3924275860
 O         -3.2247738882       -1.3767671230        2.4687679871
 O         -2.1841176554       -0.5570321491       -2.0588558327
 C         -1.8276715948       -2.3607833899        0.1521348735
 C         -0.3940518557       -2.0503723323       -0.2084081078
 C          0.3514463204       -2.8177049054       -1.0935927068
 C          1.6678734999       -2.4894275363       -1.3691370120
 C          2.2688295350       -1.3967708992       -0.7724999385
 C          1.5378639790       -0.6309992157        0.1266264099
 C          0.2222252468       -0.9668622828        0.4057483889
 H         -0.3444785990       -0.3706648889        1.1120140566
 N          2.1355405858        0.4878621470        0.7336084225
 S          3.6264754274        0.2834158296        1.4799921316
 O          3.7944607409       -1.0673154991        1.9639564904
 O          3.6987886688        1.3351469521        2.4708693562
 C          4.8027033570        0.6220389590        0.1873894976
 C          5.7806396714       -0.3051679226       -0.1147596015
 C          6.6923594331       -0.0140781007       -1.1177667270
 C          6.6104853196        1.1923715993       -1.7959965439
 C          5.6234061903        2.1137608006       -1.4786623993
 C          4.7097792942        1.8296546984       -0.4763607002
 H          3.9300114796        2.5187269595       -0.1974641150
 H          5.5624373166        3.0506833844       -2.0085954571
 H          7.3200501357        1.4164595346       -2.5767657995
 H          7.4606745151       -0.7285932482       -1.3658276596
 H          5.8014405483       -1.2321495602        0.4357908114
 H          1.5103508717        1.0050193677        1.3344955736
 H          3.2908468659       -1.1336991204       -0.9910241079
 H          2.2329915708       -3.0918598260       -2.0637561927
 H         -0.0994363096       -3.6719356510       -1.5711698106
 H         -1.8377033072       -2.7612822068        1.1772281471
 C         -2.4775695863       -3.3709174881       -0.7710032098
 C         -2.3467414920       -4.8387504890       -0.5005250988
 C         -3.6565166800       -4.1481898050       -0.2705767195
 H         -4.4720458585       -4.3442021754       -0.9502954403
 H         -3.9711218710       -3.9684546648        0.7475856429
 H         -2.2664412137       -5.5130459645       -1.3398032782
 H         -1.7752633962       -5.1396394908        0.3647082370
 H         -2.4990818203       -3.0369520221       -1.8018163331
