  62
        -98.94438808
 C         -2.1205870801       -0.8793935404       -0.3488161002
 C         -1.3343646500       -1.8058144302       -1.0777401203
 C         -0.4958176498       -2.7106719001       -0.2877893005
 C         -0.5079764096       -2.6243299602        1.0544776295
 C          0.3264447306       -3.4456193702        1.9991584794
 C          1.7412273105       -2.8811055499        2.1948194293
 C          2.6972123504       -3.1048655397        1.0215675792
 H          2.6745111006       -4.1555429797        0.7290646691
 H          3.7037848104       -2.8866024295        1.3835557291
 C          2.4121767802       -2.2174056696       -0.1982156807
 H          3.3489346701       -1.7914917394       -0.5657465908
 H          1.7827567000       -1.3784723498        0.1097827494
 C          1.7521664702       -2.9404631397       -1.3724298207
 H          2.4400112803       -3.6871322595       -1.7754415808
 H          1.5530676600       -2.2052009796       -2.1559526206
 C          0.4280441603       -3.6329464599       -1.0257062406
 H          0.6144119906       -4.5319299499       -0.4388114907
 H         -0.0638036097       -3.9179810599       -1.9592039906
 H          2.1653847507       -3.3577649499        3.0820778392
 H          1.6594224803       -1.8090876399        2.3952578094
 H          0.3846209807       -4.4763395301        1.6475208693
 H         -0.1870527293       -3.4326736903        2.9630235394
 O         -1.3094406897       -1.7558651304        1.7219578397
 C         -2.0755160200       -0.8173313105        1.0465595998
 O         -2.6746091700       -0.0230401607        1.7969213399
 O         -1.3161805401       -1.8550492701       -2.3382999803
 C         -2.8530915903        0.1877098695       -1.1457779401
 C         -2.4196640705        1.5408705095       -0.6374768000
 C         -3.2874435807        2.5735552394       -0.3140843198
 C         -2.7942112709        3.7628392094        0.1970747602
 C         -1.4414210409        3.9334235796        0.4212123701
 C         -0.5619776607        2.9057130898        0.0940794099
 C         -1.0537875006        1.7427850898       -0.4696206101
 H         -0.3734474604        0.9409704499       -0.7185497102
 N          0.8206579393        3.0386262100        0.3148200898
 S          1.7291738596        1.7999323302        0.9974323996
 O          0.9217449898        0.6496464900        1.3193153296
 O          2.4569096496        2.3983905102        2.0989921396
 C          2.9003232195        1.3703572305       -0.2773053905
 C          2.5014973894        1.3191714405       -1.5975417905
 C          3.4219374294        0.9366291807       -2.5612462706
 C          4.7185854795        0.6131422009       -2.1924556207
 C          5.1058887496        0.6732457909       -0.8626764307
 C          4.1893644096        1.0530939907        0.1049148594
 H          4.4461275497        1.1168215906        1.1498010793
 H          6.1147907197        0.4236265311       -0.5759955509
 H          5.4296717695        0.3137709111       -2.9460616408
 H          3.1205352993        0.8910117307       -3.5955758905
 H          1.4879044793        1.5772918403       -1.8592386004
 H          1.0800808392        3.9153426601        0.7441399999
 H         -1.0643737310        4.8473429197        0.8553982501
 H         -3.4780613210        4.5591477993        0.4497276503
 H         -4.3501822307        2.4415490892       -0.4340727498
 H         -2.4577806504        0.0691146196       -2.1697683801
 C         -4.3600490003        0.0174743992       -1.2516572199
 C         -5.0079096601       -1.3120302709       -1.0086840200
 C         -5.2377391302       -0.1813230010       -0.0536516799
 H         -6.2088383303        0.2924192088       -0.0473713497
 H         -4.7592230801       -0.2175669210        0.9119407501
 H         -5.8166812401       -1.6161331410       -1.6562680999
 H         -4.3722594099       -2.1251761508       -0.6884389601
 H         -4.7774650705        0.6074740292       -2.0622236899
