  62
        -98.93536755
 C          0.7263140151        1.6541341902        0.2080801212
 C          1.6548644132        1.0604590010        1.0960314218
 C          2.8443104029        0.4175827603        0.5015152701
 C          2.9281077519        0.3332211635       -0.8393323962
 C          4.0331791095       -0.2437261896       -1.6876348076
 C          4.0880699353       -1.7760377822       -1.6737925211
 C          4.0354586455       -2.3960326395       -0.2818502238
 H          3.0923040896       -2.1199665258        0.1894005912
 H          4.0440447699       -3.4825455816       -0.3995327072
 C          5.1915717166       -2.0201569046        0.6421453463
 H          5.1257607023       -2.6666821881        1.5208401761
 H          6.1393373245       -2.2355164879        0.1445509270
 C          5.2070133127       -0.5683189798        1.1309611493
 H          5.6565636102        0.0976888294        0.3984911472
 H          5.8463625769       -0.5282421186        2.0173891488
 C          3.8416965717       -0.0278026250        1.5441535152
 H          3.9920026864        0.8472676533        2.1877740397
 H          3.3324458074       -0.7610096881        2.1798416834
 H          5.0022652810       -2.0879544198       -2.1823388945
 H          3.2365405838       -2.1512386633       -2.2460105012
 H          3.8379031463        0.0876914326       -2.7101152249
 H          4.9898504396        0.1724040118       -1.3839889925
 O          1.9359090805        0.7986996548       -1.6517901571
 C          0.8396069879        1.4960664132       -1.1726424622
 O          0.0674798583        1.8984991189       -2.0620057507
 O          1.5164621112        1.0839880125        2.3493515474
 C         -0.4140565593        2.4541182961        0.8076180242
 C         -1.7189447156        2.1642867818        0.1097744367
 C         -2.4823147943        3.1369299139       -0.5224480601
 C         -3.6835515145        2.8031712237       -1.1223610484
 C         -4.1524531774        1.5040790545       -1.0940080521
 C         -3.3931128222        0.5198393595       -0.4693149918
 C         -2.1868638406        0.8552662845        0.1230464804
 H         -1.5987232347        0.0904279747        0.6105482290
 N         -3.8341768563       -0.8084100577       -0.4600004809
 S         -3.3585563217       -1.9091646218        0.6915898039
 O         -4.3109187986       -2.9918975820        0.5603034973
 O         -3.2585292403       -1.3170224126        2.0052499030
 C         -1.7699301202       -2.4840731543        0.1356873502
 C         -0.7551910549       -2.6751351059        1.0513265702
 C          0.4518433874       -3.1969505150        0.6146538675
 C          0.6232007067       -3.5125645332       -0.7240612476
 C         -0.4024019560       -3.3045637963       -1.6332057584
 C         -1.6140025869       -2.7906946918       -1.2013421767
 H         -2.4354588119       -2.6237270637       -1.8779710440
 H         -0.2625813072       -3.5450486640       -2.6748901689
 H          1.5619646425       -3.9238506927       -1.0593322725
 H          1.2499658647       -3.3579937205        1.3220804622
 H         -0.9251902148       -2.4072689314        2.0826624036
 H         -4.7660277419       -0.9686011811       -0.8103687604
 H         -5.0920022763        1.2453991997       -1.5579052740
 H         -4.2645778785        3.5675875033       -1.6157557000
 H         -2.1294721951        4.1537981424       -0.5653957556
 H         -0.5013051185        2.0800652207        1.8422871240
 C         -0.1138256571        3.9442229223        0.9076416855
 C          1.2915805777        4.4508735689        1.0259270448
 C          0.5065846539        4.7067007671       -0.2235633680
 H          0.1637395296        5.7127843606       -0.4158969970
 H          0.7615444946        4.1539133844       -1.1145452602
 H          1.4814461144        5.2771975498        1.6944932831
 H          2.0929809400        3.7275758192        0.9887876830
 H         -0.8597642346        4.4676509620        1.4980523160
