  62
        -98.94523959
 C         -2.1471646200       -0.8622115493        0.0816566099
 C         -2.9060615298       -0.2645445595        1.1152648601
 C         -3.6419152097        0.9535163207        0.7512951306
 C         -3.5242865798        1.4439955311       -0.4963809792
 C         -4.2562063398        2.6469601813       -1.0156663987
 C         -5.5932303199        2.2495381717       -1.6570734387
 C         -6.4440048199        1.3225018715       -0.7887944789
 H         -5.9325963400        0.3627436014       -0.6855863693
 H         -7.3740574000        1.1345528918       -1.3294490388
 C         -6.7663822996        1.8772354911        0.6057747713
 H         -7.8239674796        1.7041421012        0.8153316814
 H         -6.6053552795        2.9557612911        0.6217966716
 C         -5.9754952996        1.2300535206        1.7440992910
 H         -6.0583313797        0.1425092607        1.6753600807
 H         -6.4307833594        1.5339726804        2.6903631012
 C         -4.4875473295        1.5960103304        1.8148905409
 H         -4.0994532395        1.2271170801        2.7690028608
 H         -4.3737521594        2.6819115904        1.7950838313
 H         -5.3854390601        1.7401223920       -2.6008851589
 H         -6.1530577498        3.1600196618       -1.8784618983
 H         -4.4267146296        3.3438979711       -0.1972305085
 H         -3.6308146098        3.1309087215       -1.7680271387
 O         -2.7507136500        0.8660855313       -1.4513267795
 C         -2.0520443901       -0.3054527089       -1.1940401000
 O         -1.3967956303       -0.7366243186       -2.1611722702
 H          0.0749344302       -0.0288303499        1.0956810499
 C          0.6874292100       -0.7655512498        0.5892594995
 C          0.0960002498       -1.9376461996        0.1343933892
 C          0.8953724397       -2.8714380794       -0.5118165512
 C          2.2435853397       -2.6253495195       -0.7067180213
 C          2.8247081799       -1.4531334998       -0.2603234309
 C          2.0355359300       -0.5130655599        0.3894443595
 N          2.6164478702        0.6788900999        0.8584588398
 S          3.5595484302        1.5742149001       -0.2063368201
 O          3.4829395904        2.9353797600        0.2795515404
 O          3.1696539500        1.3575399706       -1.5799629801
 C          5.2058244402        0.9542879599        0.0716242595
 C          5.9305066300        0.4241866901       -0.9777397507
 C          7.2107167300       -0.0498010901       -0.7358766010
 C          7.7408010101        0.0158242094        0.5435589489
 C          7.0011977803        0.5546485792        1.5859102392
 C          5.7211451003        1.0302275894        1.3508318195
 H          5.1149725405        1.4601573992        2.1305648097
 H          7.4169382004        0.6050295088        2.5793275192
 H          8.7366208401       -0.3544973208        0.7292541887
 H          7.7872638398       -0.4679293099       -1.5452979612
 H          5.4752633599        0.3909124905       -1.9550030307
 H          1.9642251904        1.2813219998        1.3398757600
 H          3.8720930099       -1.2545261798       -0.4174350810
 H          2.8507046795       -3.3578914295       -1.2162507116
 H          0.4610272795       -3.7892320293       -0.8724061414
 C         -1.3802913801       -2.1381335195        0.3758697094
 H         -1.5276989200       -2.3264252098        1.4502716893
 C         -1.9691163804       -3.2942839591       -0.4058553009
 C         -1.9211362705       -4.6871037993        0.1454655586
 C         -3.2212188404       -3.9438652892        0.0999969990
 H         -3.9693370605       -4.2499224988       -0.6158598410
 H         -3.6316702202       -3.5709884994        1.0272134992
 H         -1.4530888504       -4.8280531997        1.1078183285
 H         -1.7785176007       -5.5081791891       -0.5407794117
 H         -1.8721829805       -3.1607296888       -1.4776923609
 O         -2.9596559497       -0.7243556699        2.2883940600
