  62
        -98.93562803
 C         -1.0405578152       -1.4359605193       -0.0608007070
 C         -1.8651949009       -0.8898898342        0.9574704633
 C         -2.8525692848        0.1156686148        0.5402801541
 C         -2.8947562152        0.4905782429       -0.7502979509
 C         -3.8950079640        1.4359935607       -1.3530709783
 C         -5.2365075716        0.7066992168       -1.5708524571
 C         -6.3883214431        1.2314012402       -0.7130658438
 H         -6.7411726972        2.1760649535       -1.1323585506
 H         -7.2063142700        0.5119228073       -0.7905510791
 C         -6.0696406814        1.4666582964        0.7667537534
 H         -5.5468772781        2.4172843341        0.8822378128
 H         -7.0259335249        1.5739491526        1.2831338982
 C         -5.2546886645        0.3688538782        1.4632714863
 H         -5.3802110719       -0.5860204690        0.9523174832
 H         -5.6499479713        0.2423255311        2.4731552878
 C         -3.7526001052        0.6804789719        1.6039172495
 H         -3.6162263297        1.7633355843        1.6682346333
 H         -3.3897587307        0.2437232438        2.5387668706
 H         -5.5284832641        0.7864109282       -2.6191752788
 H         -5.0854964718       -0.3557937012       -1.3681062449
 H         -4.0303491749        2.2975651420       -0.7028549651
 H         -3.4915208076        1.7757625818       -2.3074074570
 O         -2.0596257227       -0.0195716546       -1.6896284635
 C         -1.1224631800       -0.9977106651       -1.3822633026
 O         -0.4503289680       -1.3635338141       -2.3654526332
 H          1.4591809170       -1.0442899936       -1.2941102913
 C          1.9400847547       -1.1948097347       -0.3388082008
 C          1.2983604222       -1.9514885567        0.6326532740
 C          1.9303821318       -2.1311226810        1.8569497389
 C          3.1724850286       -1.5690753108        2.1002174572
 C          3.8062082556       -0.8120665504        1.1307474668
 C          3.1798891812       -0.6262322678       -0.0942366932
 N          3.7932397579        0.1927531169       -1.0735961163
 S          3.8400024333        1.8110434597       -0.6293247639
 O          3.9775286188        2.5603651448       -1.8570668854
 O          4.8842188224        1.9926971533        0.3463744372
 C          2.2481358796        2.1023979504        0.1218308170
 C          2.1213708014        2.0188179550        1.4936834556
 C          0.8622343246        2.1413374017        2.0577533568
 C         -0.2414601481        2.3452397835        1.2451028363
 C         -0.0968989896        2.4351128884       -0.1304813141
 C          1.1582149036        2.3031796300       -0.7009894472
 H          1.3060562587        2.3609955201       -1.7680135804
 H         -0.9584280104        2.5925748447       -0.7599531830
 H         -1.2214796455        2.4286090076        1.6868281049
 H          0.7413066920        2.0682551466        3.1263602659
 H          3.0050882259        1.8627468031        2.0901468158
 H          3.3375628371        0.1151217765       -1.9733094743
 H          4.7622788791       -0.3463593661        1.3071356623
 H          3.6498116918       -1.7169721480        3.0566983674
 H          1.4338407120       -2.7019439914        2.6276656531
 C         -0.0686900286       -2.5245705135        0.3649658228
 H         -0.4668142001       -2.8876365040        1.3252220526
 C         -0.0477842290       -3.7087191608       -0.5934740814
 C          1.1396641165       -4.0970377179       -1.4179632854
 C          0.7401657601       -4.9368933905       -0.2444358562
 H          0.2991637189       -5.9058308941       -0.4225492947
 H          1.3646908704       -4.8893643545        0.6350044517
 H          0.9542126105       -4.4696604027       -2.4140333479
 H          2.0388953597       -3.5068244800       -1.3386144725
 H         -1.0174239775       -3.8709617678       -1.0538530790
 O         -1.7863833591       -1.2427463144        2.1634872256
