  62
        -98.94151739
 C         -2.3938941811       -1.2327494478        0.1600603910
 C         -3.3209126884       -0.5392114322        0.9788132949
 C         -4.0725144602        0.5475456064        0.3377368975
 C         -3.8268410991        0.8427145696       -0.9515049397
 C         -4.4706643489        1.9645657651       -1.7125352249
 C         -3.6401969219        3.2515245297       -1.6084007397
 C         -3.2370869202        3.6127706116       -0.1785086542
 H         -2.5455637232        2.8547746213        0.1982308065
 H         -2.6828137926        4.5529304867       -0.2247061745
 C         -4.4142541010        3.7578982069        0.7964789147
 H         -4.2632780981        4.6591882981        1.3942200027
 H         -5.3416695195        3.8905614885        0.2384385923
 C         -4.5744857152        2.5943384390        1.7767606878
 H         -5.2862662856        2.8966597594        2.5493672667
 H         -3.6195390150        2.3983689953        2.2713494481
 C         -5.0843593570        1.2788621337        1.1746523774
 H         -5.3294216554        0.6084031755        2.0035671498
 H         -5.9948199417        1.4652547018        0.6017223811
 H         -4.2154606729        4.0705765952       -2.0437166833
 H         -2.7286251065        3.1251338707       -2.1978601823
 H         -5.4727868396        2.1335079588       -1.3232222542
 H         -4.5411718634        1.6729661445       -2.7617337236
 O         -2.9116181903        0.1767204192       -1.6990224359
 C         -2.1589182967       -0.8640155493       -1.1660601724
 O         -1.3430516006       -1.3538570608       -1.9676016146
 O         -3.5043902458       -0.8112027440        2.1958051806
 C         -1.5799894337       -2.3418280593        0.8043017675
 C         -0.1169699876       -2.1436458810        0.4955387659
 C          0.6729435779       -3.0799602575       -0.1566066572
 C          2.0025630423       -2.8055960861       -0.4271828623
 C          2.5725370583       -1.6028861848       -0.0533829990
 C          1.7901234436       -0.6566558578        0.5959360096
 C          0.4620359351       -0.9375543225        0.8726358458
 H         -0.1496419753       -0.1961168129        1.3739906181
 N          2.3593945920        0.5693909514        0.9868658746
 S          3.2028916377        1.4529582277       -0.1675113809
 O          3.1283595281        2.8252055315        0.2873051243
 O          2.7205343087        1.1917403816       -1.5035736223
 C          4.8785849136        0.8770978142        0.0071277907
 C          5.4731140093        0.9719912040        1.2502405152
 C          6.7779656281        0.5315284148        1.4028697288
 C          7.4629908120        0.0090853658        0.3157997197
 C          6.8532916345       -0.0756935389       -0.9265147160
 C          5.5476625556        0.3625075997       -1.0858606998
 H          5.0301112794        0.3112554801       -2.0307931430
 H          7.3872182242       -0.4814449062       -1.7707510056
 H          8.4783403655       -0.3337567919        0.4372083552
 H          7.2556217823        0.5963810211        2.3671712964
 H          4.9069109494        1.3877412192        2.0668006366
 H          1.7161762364        1.1708210484        1.4817446002
 H          3.6049855596       -1.3837320978       -0.2713648240
 H          2.6032506610       -3.5391943090       -0.9429274403
 H          0.2412780138       -4.0128836983       -0.4792415887
 H         -1.7194280353       -2.1834788922        1.8873535946
 C         -2.0801624487       -3.7477322531        0.5111297956
 C         -3.5235452473       -4.0025583147        0.1980206566
 C         -2.4822633259       -4.1928796816       -0.8617637659
 H         -2.2394643092       -5.2014308895       -1.1633455962
 H         -2.4181567788       -3.4713622867       -1.6606974652
 H         -3.9943889682       -4.8764583790        0.6225966894
 H         -4.1782947169       -3.1462975141        0.1233226405
 H         -1.5893784507       -4.4871212565        1.1366353949
