  62
        -98.94055364
 C          1.7531918429       -0.4059337250       -0.3842755259
 C          2.9127336807       -0.5940709992       -1.1790410098
 C          4.1763182938       -0.7572277081       -0.4524460583
 C          4.1817697727       -0.7098202160        0.8919095681
 C          5.3859635277       -0.8757380727        1.7787518455
 C          6.2005254246        0.4106884227        1.9726115589
 C          7.0163774700        0.8547107553        0.7576983007
 H          7.7010682049        1.6337117519        1.0990090448
 H          7.6232690633        0.0206736077        0.4039250745
 C          6.1762470963        1.4102174455       -0.4008505842
 H          5.1783269001        1.6659378561       -0.0368276171
 H          6.6281908129        2.3342637022       -0.7686740427
 C          6.0405051590        0.4656990499       -1.5952363790
 H          7.0204525237        0.3083062578       -2.0513048466
 H          5.3963257373        0.9425246803       -2.3385482187
 C          5.4354587889       -0.9019382594       -1.2527050307
 H          6.1614472119       -1.5101207615       -0.7134798180
 H          5.1797339383       -1.4068241150       -2.1875665326
 H          6.8901330223        0.2373901633        2.8019737979
 H          5.5208029192        1.2133122849        2.2681103738
 H          5.0121757856       -1.1960402652        2.7536080163
 H          6.0306144504       -1.6589643292        1.3788424458
 O          3.0512401606       -0.5140687772        1.6191504209
 C          1.8151001240       -0.3344743497        1.0084157119
 O          0.8856025066       -0.1277085322        1.8095520053
 O          2.8914728544       -0.6197167733       -2.4385274500
 C          0.4336577013       -0.2064649796       -1.1068936019
 C         -0.3035102295        0.9835845557       -0.5456777242
 C          0.3582298273        2.2070876584       -0.4641736467
 C         -0.2724509674        3.3202663934        0.0534566230
 C         -1.5901910776        3.2483632039        0.4725615879
 C         -2.2650526280        2.0396448233        0.3791031696
 C         -1.6191246808        0.9160799595       -0.1185405986
 H         -2.1566345243       -0.0158358859       -0.1528852668
 N         -3.6053764534        1.9196488004        0.7829569745
 S         -4.6737770683        1.1546627069       -0.2567917525
 O         -4.2999379339        1.3567328496       -1.6377767700
 O         -5.9793274870        1.6493406966        0.1263573079
 C         -4.5748789931       -0.5738030878        0.1558449085
 C         -4.4544812175       -1.5034205128       -0.8581950269
 C         -4.4213154997       -2.8503241728       -0.5332005201
 C         -4.5104164009       -3.2414499317        0.7942145424
 C         -4.6317281102       -2.2949459065        1.8005988670
 C         -4.6675687160       -0.9469148233        1.4819179424
 H         -4.7613120682       -0.1838714900        2.2363809455
 H         -4.6970388304       -2.6039440565        2.8313717383
 H         -4.4819696457       -4.2901933029        1.0452691194
 H         -4.3237472289       -3.5873870571       -1.3144428022
 H         -4.3800078391       -1.1533520305       -1.8755954149
 H         -4.0075386404        2.7644618023        1.1632001721
 H         -2.0879440598        4.1195515183        0.8714216665
 H          0.2604531942        4.2569622156        0.1230596454
 H          1.3843832373        2.2689499894       -0.8017492768
 H          0.7271011521        0.0422434894       -2.1415732870
 C         -0.4275267713       -1.4582511881       -1.1931832679
 C          0.1746453126       -2.8267430042       -1.0911018101
 C         -0.7095542104       -2.3145683198        0.0039825320
 H         -1.6976212803       -2.7384978888        0.1083979097
 H         -0.2576332996       -2.0229230880        0.9386149579
 H         -0.2036202320       -3.6008863588       -1.7414806425
 H          1.2362672669       -2.8948098685       -0.9024700545
 H         -1.2355819312       -1.3436415167       -1.9101582083
