  62
        -98.94493827
 C         -1.9477987974       -0.8460231721        0.0547461494
 C         -2.2776861577        0.1003208009        1.0519523682
 C         -2.3982106204        1.4897881799        0.6001267662
 C         -2.1527807362        1.7954423328       -0.6870751426
 C         -2.1946321919        3.1732599667       -1.2913809727
 C         -3.5992186755        3.6337212727       -1.7056896553
 C         -4.5341627935        3.9916303834       -0.5496654955
 H         -4.0360064984        4.7015162995        0.1112073115
 H         -5.3985028949        4.4988321082       -0.9826607239
 C         -5.0256268205        2.7861366527        0.2636414956
 H         -4.8586288278        1.8695339545       -0.3066687919
 H         -6.1021572710        2.8711646064        0.4271514088
 C         -4.3696100239        2.6382220565        1.6364949896
 H         -4.6348958044        3.4915264703        2.2644191207
 H         -4.7636602184        1.7352860396        2.1096087424
 C         -2.8400919234        2.5202771172        1.5951247370
 H         -2.3918425703        3.4870218704        1.3655561858
 H         -2.4903353639        2.1997325523        2.5798241108
 H         -4.0557634714        2.8508492029       -2.3154988270
 H         -3.4785099071        4.5184203205       -2.3350159232
 H         -1.7635974868        3.8904713520       -0.5919226113
 H         -1.5630535849        3.1372516995       -2.1818514989
 O         -1.8140496211        0.8589954452       -1.6128237385
 C         -1.7037186320       -0.4789600658       -1.2688365951
 O         -1.4004762692       -1.2303966256       -2.2161379483
 H          0.4685839281       -0.9220354908        0.8624123637
 C          0.6781387635       -1.8773069556        0.4017400839
 C         -0.3670268068       -2.7464760769        0.1147307588
 C         -0.0686333451       -3.9747123810       -0.4607857105
 C          1.2402260480       -4.3014415033       -0.7718287286
 C          2.2707746497       -3.4129442670       -0.5288543439
 C          1.9844164020       -2.1893264683        0.0672538730
 N          3.0081114684       -1.2681319516        0.3550053267
 S          2.6510341844        0.3789416140        0.2351162824
 O          2.0214418554        0.8072422890        1.4603381550
 O          1.9344896647        0.6575393330       -0.9892647387
 C          4.3033337648        1.0465674251        0.1536109642
 C          4.8355593191        1.4000874289       -1.0716982203
 C          6.1335387906        1.8841982490       -1.1244355973
 C          6.8740723970        2.0020577998        0.0420658320
 C          6.3259563586        1.6438010863        1.2649483047
 C          5.0284980179        1.1607059808        1.3248955193
 H          4.5558264340        0.8782874768        2.2510486287
 H          6.9035913685        1.7392786492        2.1700757088
 H          7.8838790573        2.3782089303       -0.0020143977
 H          6.5603884228        2.1665279511       -2.0732796647
 H          4.2184538910        1.2967343129       -1.9500493926
 H          3.8733263856       -1.4894123160       -0.1198143979
 H          3.2870547194       -3.6596645619       -0.7959637850
 H          1.4578298944       -5.2556753057       -1.2271854582
 H         -0.8622009045       -4.6704042143       -0.6792731836
 C         -1.7704625989       -2.3012310700        0.4462568584
 H         -1.8927567855       -2.3278018209        1.5400985379
 C         -2.8443868950       -3.1609852679       -0.1874033121
 C         -3.3346975059       -4.3964422264        0.5052615838
 C         -4.2094809450       -3.1824463528        0.4303251120
 H         -5.0700015675       -3.2024082875       -0.2213687847
 H         -4.3541540107       -2.5971413722        1.3268067627
 H         -3.5990860204       -5.2534457489       -0.0956042884
 H         -2.8930729862       -4.6427709421        1.4589667721
 H         -2.7837786927       -3.1656698332       -1.2701046990
 O         -2.4597939143       -0.2028037806        2.2635209908
