  62
        -98.93940968
 C         -2.5293351824       -1.2207784957       -0.2376611267
 C         -2.1634134354       -0.0438502477       -0.9361484193
 C         -3.1906158208        1.0084260375       -0.9991219589
 C         -4.3885902964        0.8011488448       -0.4238240384
 C         -5.4957843817        1.8119078341       -0.3553540552
 C         -5.3967635652        2.6539288999        0.9246193559
 C         -4.0020872039        3.2241324555        1.1840217651
 H         -4.0597515373        3.8223119962        2.0959518498
 H         -3.3095008564        2.4025189542        1.3825441418
 C         -3.4463277439        4.0866760550        0.0422952266
 H         -4.2587356979        4.4019312264       -0.6134635491
 H         -3.0033348289        4.9892517864        0.4683064873
 C         -2.3575964865        3.4102931904       -0.7933348185
 H         -1.5784624704        3.0122229405       -0.1370554883
 H         -1.8901659055        4.1709855096       -1.4247234438
 C         -2.8307000666        2.2794374630       -1.7153908991
 H         -3.6647177191        2.6274811211       -2.3284589189
 H         -1.9978565060        2.0242115380       -2.3777281222
 H         -6.1179281529        3.4703251247        0.8573636170
 H         -5.6718051042        2.0250831614        1.7743449529
 H         -5.4476633605        2.4553095145       -1.2315242054
 H         -6.4481878742        1.2794424612       -0.3569180711
 O         -4.7108457369       -0.3514361274        0.2165723804
 C         -3.7890363498       -1.3758246015        0.3447796877
 O         -4.2060834428       -2.3618104759        0.9854719446
 H          1.0675612869       -1.5354124847       -0.5234347897
 C          0.7895379257       -1.5033591618        0.5161899837
 C         -0.4773721161       -1.8924804072        0.9220197720
 C         -0.8052940129       -1.8104438624        2.2739420073
 C          0.1126253952       -1.3480912980        3.1961453135
 C          1.3728681543       -0.9487480990        2.7862137393
 C          1.7104359379       -1.0256894710        1.4404070037
 N          3.0003722414       -0.6566559458        1.0124815974
 S          3.1497121869        0.2972524074       -0.3776566062
 O          2.3289659003        1.4808462993       -0.2558623222
 O          2.9532681408       -0.5288172393       -1.5400543167
 C          4.8739246006        0.7413070849       -0.2507904113
 C          5.2228747533        1.9713070480        0.2736559579
 C          6.5656159276        2.2940697969        0.3928504099
 C          7.5319443009        1.3845413415       -0.0093176131
 C          7.1667012322        0.1537867786       -0.5345099000
 C          5.8259104955       -0.1741190842       -0.6574469318
 H          5.4939525127       -1.1134641088       -1.0675923499
 H          7.9208625873       -0.5495633885       -0.8487207789
 H          8.5761569052        1.6377605932        0.0842548176
 H          6.8518862763        3.2515888304        0.7973237541
 H          4.4364847129        2.6496484247        0.5638677231
 H          3.5356909660       -0.2374052264        1.7626072968
 H          2.0904471909       -0.5802281896        3.5040294082
 H         -0.1550837561       -1.2909151462        4.2405579288
 H         -1.7978066953       -2.1069921179        2.5854600166
 C         -1.5406198755       -2.3604297084       -0.0428260931
 H         -2.1067310898       -3.1653391449        0.4467515052
 C         -0.9981738028       -2.8824269340       -1.3550509319
 C         -0.3647454088       -4.2395786939       -1.3947164289
 C         -1.7016145331       -4.0172289359       -2.0342578549
 H         -1.7650051410       -4.0114663989       -3.1120719862
 H         -2.5756790280       -4.4249698455       -1.5472348925
 H         -0.3314163922       -4.8000861346       -0.4725506725
 H          0.4938791114       -4.3867866299       -2.0318927360
 H         -0.5800284231       -2.1089082227       -1.9874604703
 O         -1.0447611366        0.1301272569       -1.4872778797
