  62
        -98.94301315
 C         -0.9451918488       -1.3049792800        0.2807013314
 C         -1.4260089991       -0.1899172299        1.0024437710
 C         -2.2775580495        0.7517961595        0.2567896806
 C         -2.5056247896        0.5320530488       -1.0496123792
 C         -3.3816736300        1.3456106081       -1.9613081795
 C         -4.7910731798        0.7348061676       -2.0401252491
 C         -5.7531704098        1.1937699678       -0.9444561092
 H         -6.0402962002        2.2304330176       -1.1328090996
 H         -6.6552907496        0.5837097474       -1.0299757788
 C         -5.2214971396        1.0867128286        0.4877407608
 H         -4.6914739893        0.1411474788        0.6147990412
 H         -6.0809533195        1.0685713486        1.1606899809
 C         -4.3104581800        2.2580166191        0.8840026402
 H         -4.4302746803        3.0587040587        0.1538381298
 H         -4.6420544600        2.6605512694        1.8431060000
 C         -2.8159183698        1.9222440597        1.0342196302
 H         -2.2286912302        2.8121543798        0.7839606297
 H         -2.5997766297        1.6793172202        2.0792347203
 H         -5.2307133100        0.9908474571       -3.0062881792
 H         -4.6849395994       -0.3526957423       -2.0078569486
 H         -2.9237790601        1.3053988479       -2.9522308695
 H         -3.4192945003        2.3812877583       -1.6354078300
 O         -1.9956502093       -0.5374545413       -1.7171896788
 C         -1.2017832789       -1.4750496107       -1.0797682185
 O         -0.8069166787       -2.4012444109       -1.8140530981
 O         -1.1598753491        0.0107518508        2.2187344908
 C         -0.0478731884       -2.3090912594        0.9827263218
 C          1.2930542515       -2.3377141493        0.2916162316
 C          1.9498395319       -3.5024654792       -0.0809013079
 C          3.1533632118       -3.4358738291       -0.7623587281
 C          3.7144040413       -2.2178189191       -1.0979164987
 C          3.0720608410       -1.0453384791       -0.7137113091
 C          1.8896392911       -1.1168323592        0.0016000610
 H          1.3929565408       -0.2060130992        0.3003353007
 N          3.6127192105        0.2114201609       -1.0197432197
 S          2.6116170800        1.5263340205       -1.2812345802
 O          1.3619862901        1.1553578598       -1.9042575199
 O          3.4397078296        2.4537763504       -2.0252109707
 C          2.3384314200        2.1861321411        0.3486315195
 C          1.0513055200        2.4258451409        0.7844131195
 C          0.8579061899        2.9418702414        2.0558237493
 C          1.9522446099        3.2122325321        2.8623452491
 C          3.2405038599        2.9742554023        2.4068270191
 C          3.4393522700        2.4557546818        1.1377747793
 H          4.4229063900        2.2566912720        0.7464994893
 H          4.0879425299        3.1870397229        3.0383819489
 H          1.7969067199        3.6093930525        3.8530108789
 H         -0.1449737101        3.1123639812        2.4126419494
 H          0.2259023800        2.1861552903        0.1304728997
 H          4.4043898105        0.1998902809       -1.6458148898
 H          4.6367109813       -2.1697598090       -1.6564600188
 H          3.6517392221       -4.3477794291       -1.0547066677
 H          1.5140667522       -4.4615214793        0.1460093226
 H          0.0935440516       -1.9161447989        2.0006430116
 C         -0.7182411079       -3.6635899896        1.0686824324
 C         -0.3811924975       -4.6026676090        2.1873322428
 C         -1.7108056377       -3.9125796094        2.1632649927
 H         -2.5922267776       -4.4937507798        1.9372496330
 H         -1.8852061979       -3.1099893192        2.8648093623
 H         -0.3515190872       -5.6616815291        1.9800122533
 H          0.3467671425       -4.2733695184        2.9129906726
 H         -0.9337396779       -4.0825322301        0.0919215626
