  62
        -98.94596262
 C         -1.1532155278       -1.0218309365       -0.4600961205
 C         -2.2263726582       -1.2243576784        0.4458273793
 C         -2.9804701948       -0.0327170701        0.8450683241
 C         -2.6032982397        1.1748174667        0.3886474076
 C         -3.2416013173        2.4930742488        0.7345200951
 C         -4.4778871422        2.8318556250       -0.1098670687
 C         -5.7294759053        2.0150090318        0.2133727280
 H         -5.9236467321        2.0598906778        1.2854666571
 H         -6.5676904689        2.5004443937       -0.2903823384
 C         -5.6630510176        0.5496969750       -0.2391157493
 H         -4.8601271365        0.4304783316       -0.9700024472
 H         -6.5956929655        0.2805525157       -0.7398849062
 C         -5.4514332038       -0.4547918061        0.8936274226
 H         -5.3840816489       -1.4546195139        0.4574447700
 H         -6.3127543589       -0.4376525396        1.5650954434
 C         -4.1823791708       -0.2146938841        1.7222096254
 H         -4.3135303285        0.6516256600        2.3708961009
 H         -4.0067268940       -1.0942226299        2.3467317121
 H         -4.2241951994        2.7077869466       -1.1650304055
 H         -4.7059226148        3.8872440521        0.0563730651
 H         -2.4835304746        3.2601426204        0.5611185339
 H         -3.5057268281        2.5036045528        1.7926458591
 O         -1.5528266889        1.3363699949       -0.4544217982
 C         -0.8093910147        0.2540419369       -0.9084927263
 O          0.1019860635        0.5819147556       -1.6931598835
 O         -2.5427095451       -2.3588501621        0.8973937938
 C         -0.3620920320       -2.2571638243       -0.8556898040
 C          0.8310073560       -2.4281153901        0.0554328191
 C          1.0752678557       -3.6333192605        0.7032338975
 C          2.1519481461       -3.7639141769        1.5625542124
 C          2.9851434371       -2.6888827873        1.8151628335
 C          2.7475202732       -1.4798403579        1.1719252305
 C          1.6969380630       -1.3670742030        0.2750548497
 H          1.5335972368       -0.4278662112       -0.2274239424
 N          3.5514483149       -0.3544540970        1.4077008901
 S          2.8172727864        1.1515260706        1.5013688839
 O          3.7266158388        1.9391490269        2.3123034124
 O          1.4639809033        1.0564816414        2.0011981707
 C          2.8518436109        1.8012428806       -0.1531887100
 C          3.8827656224        1.4469640392       -0.9998197338
 C          3.9286045017        2.0081375744       -2.2653637149
 C          2.9544822665        2.9135592834       -2.6568386456
 C          1.9297312306        3.2618812628       -1.7924776773
 C          1.8755213616        2.7009159565       -0.5271609223
 H          1.0824348523        2.9284548958        0.1681697206
 H          1.1644069449        3.9562830195       -2.1002268464
 H          2.9893190977        3.3462947672       -3.6444322660
 H          4.7208862714        1.7347316816       -2.9438427421
 H          4.6186266642        0.7347963848       -0.6648792897
 H          4.2535456854       -0.4706266179        2.1243632995
 H          3.8065809323       -2.7790915946        2.5095680664
 H          2.3315700966       -4.7053174641        2.0592191460
 H          0.4037838714       -4.4643970436        0.5462285946
 H         -1.0386880569       -3.1049067987       -0.6789815774
 C          0.0719934574       -2.2829245634       -2.3079562882
 C          0.3406446749       -3.6024393044       -2.9649382302
 C         -0.8709026210       -2.8073667088       -3.3473102212
 H         -0.8924077513       -2.3236492904       -4.3120458343
 H         -1.8371008700       -3.1574447010       -3.0136866924
 H          1.1552143780       -3.6685694110       -3.6693227117
 H          0.1939362797       -4.4954769743       -2.3767358991
 H          0.6988868169       -1.4444129628       -2.5811069229
