  62
        -98.94739042
 C         -2.5363053002       -0.2141710700       -0.0138327096
 C         -2.2539475900       -1.2342958094       -0.9520057002
 C         -1.7004094396       -2.4758714695       -0.4020257810
 C         -1.5024948395       -2.5871221303        0.9242769289
 C         -0.9762944491       -3.8000357606        1.6434103281
 C          0.5550506209       -3.8957926202        1.6591256679
 C          1.1890814909       -4.3015531092        0.3282996876
 H          2.2280429810       -4.5666992490        0.5335225473
 H          0.6925654111       -5.1934831691       -0.0559885329
 C          1.1662983505       -3.1961081285       -0.7358367517
 H          2.1447838905       -3.1281466080       -1.2184979518
 H          0.9926081603       -2.2285372589       -0.2584683211
 C          0.1351108205       -3.3914248781       -1.8476643518
 H          0.1771514702       -2.5107097877       -2.4946367812
 H          0.4021125907       -4.2658111777       -2.4466308723
 C         -1.3100060394       -3.5600242688       -1.3608763917
 H         -1.9721308295       -3.4891126985       -2.2278055316
 H         -1.4387982091       -4.5397239192       -0.9002693123
 H          0.9595809507       -2.9294150503        1.9704442485
 H          0.8294349212       -4.6371073406        2.4134565774
 H         -1.3959393589       -4.7023837904        1.1971777176
 H         -1.3282112590       -3.7238404213        2.6745363382
 O         -1.7985123697       -1.5872993509        1.7957952895
 C         -2.2737501501       -0.3654018108        1.3476613103
 O         -2.4442968302        0.4796011386        2.2484435708
 O         -2.4629521002       -1.1143152586       -2.1910242901
 C         -3.0229781907        1.1366959002       -0.5103961887
 C         -1.9850813209        2.1730506402       -0.1541343582
 C         -2.2680632512        3.3824923098        0.4653849826
 C         -1.2397266514        4.2369422698        0.8268701630
 C          0.0811067187        3.8991985903        0.5977903927
 C          0.3722260390        2.6997607608       -0.0439541580
 C         -0.6600271109        1.8674370108       -0.4381762585
 H         -0.4253818906        0.9389332911       -0.9387170890
 N          1.6993311790        2.3167830714       -0.3107264584
 S          2.0398548395        0.6598758115       -0.3158743794
 O          1.7156997995        0.1346581222       -1.6181849097
 O          1.4259578898        0.0132779606        0.8222210902
 C          3.8121714495        0.6997396818       -0.1235426096
 C          4.5869642193        1.0096262327       -1.2256170494
 C          5.9634350393        1.0743127630       -1.0800046595
 C          6.5393820495        0.8289456124        0.1578747903
 C          5.7494661497        0.5158959015        1.2537265402
 C          4.3715274297        0.4516334512        1.1151673502
 H          3.7167627698        0.2060578805        1.9361262501
 H          6.1994848598        0.3218522611        2.2139819600
 H          7.6109824595        0.8790612026        0.2687537802
 H          6.5808289692        1.3140694237       -1.9305148694
 H          4.0937958692        1.1813579732       -2.1680438493
 H          2.3742508789        2.8357764712        0.2345222719
 H          0.8805937385        4.5527484204        0.9119222931
 H         -1.4709253816        5.1707057495        1.3168558436
 H         -3.2896301812        3.6477725694        0.6831505929
 H         -3.0675466807        1.0491933408       -1.6065913688
 C         -4.4069606407        1.4491392595        0.0155181616
 C         -5.3238387510        2.3454112197       -0.7607882478
 C         -5.5969297006        0.8739549996       -0.6903435586
 H         -6.4304810904        0.5292320290       -0.0972794188
 H         -5.4079771905        0.2735528602       -1.5683579490
 H         -5.9752638411        3.0121690492       -0.2164696073
 H         -4.9569077012        2.7477266404       -1.6928719475
 H         -4.4386859706        1.4921027488        1.0983646716
