  62
        -98.93516416
 C         -2.2487889834       -1.0062353847       -0.0249289249
 C         -3.2283638898       -0.5942550847        0.9150493075
 C         -4.2610062069        0.3483145941        0.4497364744
 C         -4.2095311722        0.7917537747       -0.8187048484
 C         -5.1392177262        1.7414332296       -1.5308838570
 C         -5.5880920094        2.9863208560       -0.7503618997
 C         -7.0592073986        2.9459199685       -0.3326409050
 H         -7.4107068484        3.9706243922       -0.1929044164
 H         -7.6403587657        2.5111975255       -1.1486179549
 C         -7.3480413055        2.1793622657        0.9568094351
 H         -6.9753375124        2.7518690594        1.8089059031
 H         -8.4331211046        2.1084877928        1.0628463156
 C         -6.7557272685        0.7704614602        1.0263238903
 H         -7.3374113329        0.1993201310        1.7529939075
 H         -6.8608882205        0.2643128648        0.0672581384
 C         -5.2873517270        0.7416353454        1.4766978136
 H         -5.0080137280        1.7091851178        1.9033123504
 H         -5.1641968393        0.0117740364        2.2827759082
 H         -4.9499809446        3.1281028919        0.1204227885
 H         -5.4468650901        3.8528024726       -1.3984950957
 H         -4.5992701778        2.0427467499       -2.4315528161
 H         -6.0143131348        1.1796886777       -1.8675927268
 O         -3.2442933422        0.3787655121       -1.6870118634
 C         -2.2557280571       -0.5227659668       -1.3320620306
 O         -1.4722384797       -0.7865129018       -2.2679224780
 O         -3.2473855518       -1.0116609496        2.1040151826
 C         -1.2186806623       -2.0103015477        0.4637358919
 C          0.1091447585       -1.3653613194        0.7840672230
 C          0.6294758120       -1.4134910475        2.0720933427
 C          1.8633201234       -0.8543920338        2.3553959200
 C          2.6009091680       -0.2340364898        1.3632088361
 C          2.0881297660       -0.1763395182        0.0738286798
 C          0.8536481346       -0.7435022802       -0.2083169562
 H          0.4589473413       -0.6936225067       -1.2125261557
 N          2.8204329954        0.4719426384       -0.9383938328
 S          4.4002058451       -0.0362978273       -1.2007164733
 O          4.6978480373        0.3279337004       -2.5686973745
 O          4.5726238191       -1.4285349654       -0.8543829606
 C          5.3657540809        0.9854688830       -0.1075120342
 C          5.2553158633        2.3567864712       -0.2301188721
 C          6.0069551250        3.1657267998        0.6070734670
 C          6.8537231960        2.5932087926        1.5447957955
 C          6.9562378093        1.2147865648        1.6526406790
 C          6.2062222511        0.3997800314        0.8189096813
 H          6.2483197823       -0.6764860399        0.8697306613
 H          7.6154509679        0.7718065079        2.3817592720
 H          7.4374088631        3.2254564624        2.1951000439
 H          5.9299865197        4.2380747851        0.5261711060
 H          4.5883710502        2.7605448630       -0.9736888171
 H          2.3200137570        0.5233628013       -1.8147665832
 H          3.5621450294        0.2037947340        1.5774572240
 H          2.2548672820       -0.9006223566        3.3600291211
 H          0.0549937751       -1.8869711837        2.8548540643
 H         -1.6310738900       -2.4035348692        1.4026145564
 C         -1.0206079145       -3.1707574265       -0.4934531951
 C         -0.4642467608       -4.4589333639        0.0312161514
 C         -1.9028184041       -4.3759425335       -0.3810687999
 H         -2.2120925161       -4.8734460546       -1.2880087983
 H         -2.6557064125       -4.3728571875        0.3936377228
 H          0.2203822402       -5.0145361501       -0.5912038827
 H         -0.2418000662       -4.5141842885        1.0860168351
 H         -0.7246730718       -2.8631860254       -1.4882723789
