  62
        -98.94091551
 C          2.2991030663       -0.4673576805       -0.2097546861
 C          3.5550028276       -0.9955877239       -0.5933642535
 C          4.6716406071       -0.0422099628       -0.6212813904
 C          4.4424171132        1.2468211141       -0.3099973017
 C          5.4974107316        2.3124787996       -0.2469631252
 C          6.0909237181        2.4241947134        1.1643924304
 C          6.5160295710        1.0836729815        1.7638002105
 H          6.9466336783        1.2890685449        2.7462609934
 H          5.6278912084        0.4682172279        1.9250644994
 C          7.5278442770        0.3009572583        0.9152353173
 H          8.0046992205        0.9693053344        0.1974617240
 H          8.3117287721       -0.0831186039        1.5713258090
 C          6.9386674126       -0.9008806926        0.1745911236
 H          6.3791250971       -1.5249174415        0.8759841465
 H          7.7663751480       -1.5023730840       -0.2103730405
 C          6.0237325645       -0.5702643987       -1.0113052984
 H          6.5297521008        0.1248614936       -1.6841599158
 H          5.8354433793       -1.5006374487       -1.5550056733
 H          6.9499763744        3.0964035356        1.1251039480
 H          5.3399310488        2.8698393953        1.8208983316
 H          6.2820542432        2.0822551706       -0.9650243072
 H          5.0388654348        3.2656720134       -0.5153008361
 O          3.2166533512        1.7222161585        0.0314657642
 C          2.1160166868        0.8801949526        0.0987055532
 O          1.0567617343        1.4452940602        0.4337883823
 H         -1.5775420096       -0.9927652656        0.4096474890
 C         -1.3076937654       -0.7580161639       -0.6052678306
 C          0.0000307167       -0.9048630558       -1.0395102676
 C          0.3034952159       -0.5967989137       -2.3636044534
 C         -0.6729085061       -0.1291925960       -3.2204084675
 C         -1.9718732444        0.0426211841       -2.7750073756
 C         -2.2904477278       -0.2783329552       -1.4611490482
 N         -3.6196958731       -0.1647591460       -1.0109874150
 S         -3.9627943353        0.4116187387        0.5381178842
 O         -3.4735231370        1.7638124725        0.6964389874
 O         -3.5252979457       -0.5521067881        1.5147045093
 C         -5.7451547628        0.4108179096        0.4592658386
 C         -6.4070653823       -0.7938013789        0.6036528103
 C         -7.7899070932       -0.8131725019        0.5182872532
 C         -8.4846378859        0.3656707906        0.2906519877
 C         -7.8071064730        1.5672615398        0.1500984353
 C         -6.4235384987        1.5931543876        0.2333079532
 H         -5.8553928507        2.5047699501        0.1390757040
 H         -8.3498358960        2.4825144373       -0.0233770395
 H         -9.5610576146        0.3481493229        0.2251206722
 H         -8.3202811484       -1.7450943444        0.6296923926
 H         -5.8255597623       -1.6819374288        0.7876195169
 H         -4.2021994663        0.3202285248       -1.6817617834
 H         -2.7330692253        0.4194726138       -3.4415166502
 H         -0.4208477747        0.1128985924       -4.2421009322
 H          1.3215824579       -0.7208193083       -2.7077758278
 C          1.1035374159       -1.3991563927       -0.1376748798
 H          1.4608463228       -2.3640558708       -0.5285630390
 C          0.6709093503       -1.5890048357        1.3007337033
 C         -0.0016497572       -2.8588436212        1.7257056864
 C          1.4038275161       -2.5736413228        2.1598580798
 H          1.5856755221       -2.3204043047        3.1936315343
 H          2.2050993724       -3.1320198352        1.6980100936
 H         -0.7930523104       -2.7982182822        2.4577419901
 H         -0.1549322452       -3.6168933688        0.9725527086
 H          0.3488610360       -0.6623804809        1.7653518068
 O          3.7310052940       -2.2044881283       -0.9037687577
