  62
        -98.93204596
 C         -2.1514518328       -1.1332325255        0.0929397990
 C         -3.0692148969       -0.5150843813        0.9755309916
 C         -3.9933278987        0.4775645045        0.3963155447
 C         -3.8688599164        0.7996871052       -0.9035116771
 C         -4.6860248922        1.7667845171       -1.7223635068
 C         -5.0196089555        3.1171360151       -1.0697401470
 C         -6.4945887015        3.2629201796       -0.6909923520
 H         -6.7414268952        4.3262015412       -0.6514783126
 H         -7.1018158006        2.8169795327       -1.4814193166
 C         -6.8850144419        2.6490858736        0.6524313061
 H         -6.4715555209        3.2557877110        1.4611506293
 H         -7.9733784634        2.6979017041        0.7341953347
 C         -6.4425530317        1.1996468908        0.8625786774
 H         -6.5812634431        0.6219293749       -0.0506639611
 H         -7.0931874426        0.7582819294        1.6205507047
 C         -4.9937025619        1.0640183988        1.3548204728
 H         -4.9614676559        0.4037892638        2.2272944159
 H         -4.6248506713        2.0339647855        1.7013802793
 H         -4.7785207495        3.9017844086       -1.7887752823
 H         -4.3866914943        3.2747948630       -0.1976499640
 H         -4.1030340078        1.9283146096       -2.6319486767
 H         -5.6079028535        1.2660248138       -2.0287737549
 O         -2.9239141681        0.2281200244       -1.7023888681
 C         -2.0489913525       -0.7450634842       -1.2431755667
 O         -1.2526360445       -1.1543410138       -2.1063725068
 O         -3.1178925973       -0.7810974129        2.2077484689
 C         -1.2116661912       -2.1778946808        0.6662707371
 C          0.2087224186       -1.8957788758        0.2432752248
 C          1.0152157281       -2.8116140320       -0.4178378562
 C          2.3146062162       -2.4802648151       -0.7616303003
 C          2.8363140359       -1.2369784180       -0.4582144878
 C          2.0395880487       -0.3128268088        0.2055721864
 C          0.7429367805       -0.6513552354        0.5575994509
 H          0.1220913308        0.0702436465        1.0764741840
 N          2.5570022952        0.9616723492        0.5030951329
 S          4.0071477951        1.0405323910        1.3476881151
 O          4.1799627474       -0.1079136652        2.2073314373
 O          3.9951374423        2.3329936195        1.9981309628
 C          5.2506421782        1.0425389608        0.0740696908
 C          6.2461908001        0.0852588834        0.0832300213
 C          7.2091941594        0.1109553665       -0.9135781687
 C          7.1599168953        1.0883072214       -1.8957429782
 C          6.1548028058        2.0441486308       -1.8889711954
 C          5.1899161366        2.0251033016       -0.8945564281
 H          4.3949054493        2.7508383906       -0.8515453454
 H          6.1194802746        2.8024542767       -2.6545441836
 H          7.9091950151        1.1056072647       -2.6713584938
 H          7.9915511551       -0.6308080723       -0.9204755010
 H          6.2399196798       -0.6587244257        0.8637195572
 H          1.8785769582        1.5867083663        0.9138557663
 H          3.8444746143       -0.9736372953       -0.7334209529
 H          2.9279092403       -3.2003138463       -1.2815370223
 H          0.6216676780       -3.7787468213       -0.6832317830
 H         -1.2692035195       -2.0244951866        1.7577085444
 C         -1.6454717397       -3.6139351420        0.4125174141
 C         -3.0867958473       -3.9582763419        0.1880849891
 C         -2.1023400498       -4.0886847445       -0.9331820051
 H         -1.8173289047       -5.0814405931       -1.2495659900
 H         -2.1312108632       -3.3662081750       -1.7333098226
 H         -3.4752146147       -4.8574652957        0.6423653756
 H         -3.7970674189       -3.1448409602        0.1537141310
 H         -1.0742001757       -4.3185292677        1.0093481922
