  62
        -98.94690491
 C         -0.4379328875       -1.8198491967       -0.6227605711
 C         -1.5454865687       -2.1175417755        0.2116099994
 C         -2.7572552783       -1.3149741563        0.0095119561
 C         -2.7616046250       -0.3647124366       -0.9419895295
 C         -3.9297418527        0.5221245021       -1.2651556393
 C         -3.8888172168        1.8403696024       -0.4808364816
 C         -3.6062180368        1.6671685948        1.0117114006
 H         -2.5916142563        1.2831063030        1.1526018207
 H         -3.6274531531        2.6622046342        1.4638736031
 C         -4.6051983592        0.7573641710        1.7409174338
 H         -4.8752778909        1.2292945264        2.6880932147
 H         -5.5189562656        0.6645853774        1.1519458761
 C         -4.0746342617       -0.6377816545        2.0770431782
 H         -4.7588024324       -1.0965098837        2.7963389361
 H         -3.0990552036       -0.5474195205        2.5630002449
 C         -3.9368600934       -1.6037504951        0.8931457405
 H         -4.8641207105       -1.6148855685        0.3161782860
 H         -3.7704706886       -2.6065195480        1.2976716730
 H         -4.8462156039        2.3489910202       -0.6118290516
 H         -3.1095843091        2.4777085267       -0.9049198818
 H         -3.9037537419        0.7445898856       -2.3334447042
 H         -4.8501443724       -0.0136512515       -1.0398793555
 O         -1.6816573944       -0.0952292969       -1.7143331578
 C         -0.4830492555       -0.7814529910       -1.5538485714
 O          0.4243648264       -0.3659919116       -2.2994457050
 O         -1.5236675976       -3.0340103071        1.0788143998
 C          0.8198953082       -2.6360823209       -0.3864138778
 C          1.7062773868       -1.9789532933        0.6470022356
 C          2.3887218753       -2.7363013903        1.5925756525
 C          3.1735563791       -2.1222695823        2.5519304667
 C          3.2660618562       -0.7427683085        2.6091987787
 C          2.5873869498        0.0217525725        1.6681940284
 C          1.8438683134       -0.6003151271        0.6770612639
 H          1.3400341689        0.0057987267       -0.0584290835
 N          2.6289751382        1.4235169637        1.6921755098
 S          1.2329743809        2.2720382797        1.3131366200
 O          1.4036941512        3.5519391842        1.9728562565
 O          0.0434669765        1.5365156162        1.6771026808
 C          1.3031584889        2.5330608361       -0.4437504796
 C          0.1141914768        2.6219995732       -1.1369467252
 C          0.1458242423        2.8665939585       -2.4993454474
 C          1.3638313584        3.0221109119       -3.1403936072
 C          2.5502439842        2.9361349984       -2.4287660677
 C          2.5248446126        2.6920908867       -1.0654490842
 H          3.4280047726        2.6084073067       -0.4838692640
 H          3.4957542813        3.0513101095       -2.9342235029
 H          1.3873544653        3.2028733271       -4.2035316868
 H         -0.7772254557        2.9184265168       -3.0544661571
 H         -0.8091321316        2.4733366518       -0.5988690982
 H          3.1117323600        1.8276061735        2.4817490134
 H          3.8494220172       -0.2602360517        3.3785161034
 H          3.6992278184       -2.7214328038        3.2797317167
 H          2.2868085177       -3.8110161781        1.5847704666
 H          0.4738578400       -3.5893029760        0.0383287790
 C          1.6135618908       -2.9319078468       -1.6441584960
 C          2.4426390226       -4.1774273098       -1.7193244600
 C          1.1894036064       -4.0610756111       -2.5328319061
 H          1.2710548638       -3.9314279681       -3.6012033842
 H          0.3283470753       -4.6383894550       -2.2284083278
 H          3.3925697442       -4.1306382888       -2.2287953111
 H          2.4312338797       -4.8439448892       -0.8706223163
 H          1.9962610080       -2.0405320749       -2.1236689309
