  62
        -98.94292922
 C         -2.0460557607       -0.4237362105       -0.9094825806
 C         -2.8619880009        0.7331865194       -0.8532760504
 C         -4.2768250008        0.5025895391       -0.5296479802
 C         -4.7285187906       -0.7459273409       -0.3194812802
 C         -6.1428716304       -1.1350587212        0.0144660400
 C         -6.4832951102       -1.0203161213        1.5068507000
 C         -6.6317871704        0.4078019487        2.0334630301
 H         -7.3283666206        0.9568114586        1.3990412702
 H         -7.0816289202        0.3370841985        3.0258556102
 C         -5.3117812005        1.1836268189        2.1445907899
 H         -5.2687094404        1.6915464188        3.1107192300
 H         -4.4735931704        0.4833435890        2.1145031498
 C         -5.1088203308        2.2460294189        1.0643638899
 H         -4.1297506409        2.7066999491        1.2170434398
 H         -5.8675255210        3.0247360388        1.1689675201
 C         -5.1590497710        1.7043121790       -0.3701102201
 H         -4.7883520612        2.4810666191       -1.0431844701
 H         -6.1849861110        1.4623098588       -0.6457840399
 H         -5.7143781501       -1.5425299312        2.0811909699
 H         -7.4290455901       -1.5435414115        1.6660932902
 H         -6.8381216906       -0.5287089013       -0.5667511999
 H         -6.2570042003       -2.1790270712       -0.2854074500
 O         -3.9198635704       -1.8357214408       -0.4054264804
 C         -2.5714603704       -1.7004094906       -0.6843130306
 O         -1.9491575103       -2.7823697405       -0.7147952207
 O         -2.4566299611        1.9084607695       -1.0521360905
 C         -0.5587660007       -0.3861545102       -1.2183609208
 C          0.2724148894       -0.0423495901       -0.0048862209
 C          0.0098129993        1.0828135298        0.7699907291
 C          0.7973605194        1.3775948799        1.8675750190
 C          1.8786228796        0.5779366801        2.1953177088
 C          2.1592445197       -0.5386224798        1.4184854188
 C          1.3480148896       -0.8496545899        0.3356751089
 H          1.5742112796       -1.7292680699       -0.2478067312
 N          3.2720661299       -1.3594159797        1.6957552186
 S          4.4412929397       -1.4744303694        0.5000717984
 O          3.8883165096       -2.1151046395       -0.6645122116
 O          5.5631189299       -2.1339042093        1.1293990982
 C          4.8579011094        0.2228659907        0.1385670584
 C          5.9322647594        0.7975607908        0.7895051082
 C          6.2103806291        2.1373545009        0.5721397082
 C          5.4043662388        2.8796785408       -0.2777305716
 C          4.3275486788        2.2888325506       -0.9207537315
 C          4.0484133591        0.9469223305       -0.7145435615
 H          3.2199958891        0.4589764204       -1.2014521614
 H          3.6977857187        2.8657215305       -1.5788475114
 H          5.6159512586        3.9245986008       -0.4413674416
 H          7.0494211691        2.5984191510        1.0679228481
 H          6.5320236996        0.1820509509        1.4404886281
 H          3.7172191400       -1.1521746496        2.5793584685
 H          2.4996566797        0.8143942702        3.0462411188
 H          0.5750758894        2.2472200298        2.4669929391
 H         -0.8157617108        1.7234178897        0.5024176093
 H         -0.2935221106       -1.4094657302       -1.5184422109
 C         -0.2038049211        0.5485166299       -2.3604774309
 C          1.0393802888        0.2830785901       -3.1530726210
 C         -0.3079172812        0.0534738799       -3.7696395209
 H         -0.6523326414        0.7363310299       -4.5315294108
 H         -0.6334682611       -0.9662907801       -3.9182450208
 H          1.6220667787        1.1239253002       -3.4976093511
 H          1.6292882490       -0.5846475898       -2.8925178012
 H         -0.4766041912        1.5783024098       -2.1711494508
