  62
        -98.94054441
 C          1.4888920256        1.2283626436        0.1503594376
 C          2.5468230370        0.7483074330        0.9578396253
 C          3.0920483326       -0.5786215790        0.6262453337
 C          2.5401732479       -1.2849286158       -0.3777836346
 C          2.8319764223       -2.6787687541       -0.8933307758
 C          4.1195256665       -3.4023356646       -0.5074768557
 C          5.3974414559       -2.7772765711       -1.0661636028
 H          6.2507286554       -3.3169578751       -0.6498659102
 H          5.4088674228       -2.9199985094       -2.1495582873
 C          5.5732485881       -1.2851964605       -0.7956949554
 H          6.5195667077       -0.9730464526       -1.2455052673
 H          4.7792181734       -0.7267968325       -1.2956977657
 C          5.6065669958       -0.8874684700        0.6787955731
 H          6.3665942335       -1.4722136291        1.2003666454
 H          5.9009238741        0.1643197398        0.7293574186
 C          4.2737808654       -1.0302546053        1.4352660116
 H          4.1262847979       -2.0468237881        1.7933303471
 H          4.3104841176       -0.3782677732        2.3132054218
 H          4.0405401713       -4.4140491893       -0.9148160094
 H          4.1842873034       -3.5034317768        0.5720067890
 H          1.9795076998       -3.2893209503       -0.5733916155
 H          2.7716906075       -2.6123722112       -1.9844740418
 O          1.4964064080       -0.7978329404       -1.1064829116
 C          0.9372791462        0.4440426177       -0.8609747983
 O         -0.0182561105        0.7216667071       -1.6108770404
 H         -0.5110641946        0.7266700234        1.8033328615
 C         -1.1656701865        1.4075590357        1.2776096169
 C         -0.6253439056        2.4506746631        0.5341389285
 C         -1.4936626433        3.3053992751       -0.1319953270
 C         -2.8626688469        3.1070364193       -0.0671273834
 C         -3.3919106785        2.0416340078        0.6368916194
 C         -2.5301160382        1.1804591234        1.3063255869
 N         -3.0071322728        0.0498582670        2.0070998614
 S         -2.6145600431       -1.4389015174        1.3386211829
 O         -3.2240515157       -2.4190104978        2.2131887756
 O         -1.1884444598       -1.5388277112        1.1656921656
 C         -3.4650459260       -1.4457788507       -0.2300662761
 C         -2.9187840107       -0.7707892722       -1.3031728955
 C         -3.6375526461       -0.7184907621       -2.4886941064
 C         -4.8769046360       -1.3322446735       -2.5801978614
 C         -5.4102747173       -2.0058407939       -1.4912348713
 C         -4.7018394270       -2.0591200059       -0.3023455705
 H         -5.0733504878       -2.5721802940        0.5701697868
 H         -6.3733205280       -2.4849938312       -1.5640119051
 H         -5.4288441192       -1.2854612394       -3.5057338337
 H         -3.2160221695       -0.1923092774       -3.3301427071
 H         -1.9496939533       -0.3031734965       -1.2155614107
 H         -4.0037686317        0.0734317901        2.1791578676
 H         -4.4575155047        1.8693803036        0.6638641257
 H         -3.5242002726        3.7793996471       -0.5915996639
 H         -1.1001663626        4.1169134797       -0.7215598742
 C          0.8778404058        2.5737756556        0.4990847074
 H          1.2243353743        2.7705625383        1.5283165620
 C          1.3749873100        3.7309807342       -0.3547994238
 C          2.6903088985        3.6559658800       -1.0692935493
 C          1.4126594892        3.6542335366       -1.8507967675
 H          1.1592037972        4.5385006678       -2.4169945212
 H          1.0898596369        2.7322354634       -2.3079198184
 H          3.3106794655        4.5393961493       -1.0935196829
 H          3.2478860923        2.7332611878       -0.9970167400
 H          1.1236758595        4.6940937161        0.0785935638
 O          3.0120055340        1.3994268949        1.9332251121
