  62
        -98.93938968
 C          2.0538580715        0.0109950179       -1.1236719648
 C          2.9170257037       -1.0098838303       -0.6533872870
 C          4.3079773199       -0.6032424310       -0.3932277333
 C          4.6807605082        0.6709754009       -0.6046655785
 C          6.0428069532        1.2286610800       -0.3119222566
 C          6.1156909083        1.7931130176        1.1139840318
 C          5.5811504223        0.8407691835        2.1838319435
 H          5.7109645151        1.3328083692        3.1502360240
 H          4.5073558439        0.7046628461        2.0351272890
 C          6.2676955819       -0.5319969997        2.2123048221
 H          6.4863834326       -0.7924071912        3.2500700947
 H          7.2204366412       -0.4803801654        1.6840602816
 C          5.4287147226       -1.6727913584        1.6338592036
 H          4.4388120484       -1.6697997753        2.0966417006
 H          5.9113358444       -2.6173445185        1.8984994883
 C          5.2485321187       -1.6620049964        0.1106669950
 H          6.2223571670       -1.5747667913       -0.3750480329
 H          4.8041906344       -2.6192303018       -0.1771753828
 H          7.1552944763        2.0434791277        1.3332309059
 H          5.5290380345        2.7140690918        1.1518176254
 H          6.7868664646        0.4452895875       -0.4424708330
 H          6.2455945581        2.0320786535       -1.0221087353
 O          3.8284898338        1.6210809259       -1.0685931370
 C          2.5034950611        1.3187459992       -1.3281732890
 O          1.8312941540        2.2858984753       -1.7410849664
 O          2.5670364536       -2.2009207687       -0.4527977011
 C          0.5828088754       -0.2223540412       -1.4300953530
 C         -0.2406885048       -0.0466048469       -0.1786713010
 C          0.0466649988       -0.7695903592        0.9765003381
 C         -0.6958603158       -0.5787773259        2.1261631367
 C         -1.7502253879        0.3187465884        2.1419267404
 C         -2.0517860435        1.0369313074        0.9922237746
 C         -1.2937381271        0.8556611889       -0.1575439071
 H         -1.5354693551        1.4316952175       -1.0381137361
 N         -3.1294947364        1.9462166096        0.9679476234
 S         -4.3680333518        1.6299091174       -0.1149546024
 O         -3.8811750122        1.7486479882       -1.4644198186
 O         -5.4415724435        2.5187519629        0.2677452256
 C         -4.8188106325       -0.0601216454        0.2351207476
 C         -5.7722211297       -0.3113102824        1.2025402566
 C         -6.0609696422       -1.6255357010        1.5329436857
 C         -5.3866979784       -2.6602666767        0.9019010598
 C         -4.4312395181       -2.3917316342       -0.0662440865
 C         -4.1419825320       -1.0792084943       -0.4039845073
 H         -3.4089380120       -0.8305897050       -1.1534239700
 H         -3.9060525019       -3.1944738292       -0.5588487527
 H         -5.6075219916       -3.6829317198        1.1639441346
 H         -6.8064195663       -1.8387554310        2.2820726491
 H         -6.2758767146        0.5230067603        1.6636398293
 H         -3.5221351504        2.1302539129        1.8809971158
 H         -2.3322316280        0.4669519051        3.0391782667
 H         -0.4583387915       -1.1400868313        3.0169459907
 H          0.8555417614       -1.4836034716        0.9557971019
 H          0.3024303735        0.5869082475       -2.1224218942
 C          0.3212886324       -1.5486775367       -2.1357416561
 C         -0.6579719283       -2.5605464028       -1.6256939813
 C         -0.9843396424       -1.7555103849       -2.8450145374
 H         -0.9794736517       -2.2423468606       -3.8086507602
 H         -1.7217421116       -0.9698123704       -2.7586543847
 H         -0.4070357177       -3.6030910934       -1.7480826318
 H         -1.1866121920       -2.3419977210       -0.7108539972
 H          1.2049241175       -1.9394348065       -2.6265714088
