  62
        -98.94294163
 C         -1.9606918347       -0.5650434071        0.0288336371
 C         -2.5414826512        0.7054462887        0.2821701528
 C         -3.8960775131        0.9235848639       -0.2401643375
 C         -4.4969122714       -0.0606790750       -0.9328949421
 C         -5.8923548085        0.0016155513       -1.4813173297
 C         -6.9111646804       -0.5445815406       -0.4712822684
 C         -6.7605393868        0.0380067296        0.9339632537
 H         -5.8067627002       -0.2881207336        1.3550077651
 H         -7.5496364338       -0.3953487471        1.5522460137
 C         -6.8439749090        1.5694571031        0.9986220132
 H         -7.4884935472        1.8503390755        1.8342575439
 H         -7.3067477445        1.9545201657        0.0892602181
 C         -5.5013217054        2.2693716218        1.2180962876
 H         -4.9907667337        1.8232859628        2.0754655805
 H         -5.6994702417        3.3159433116        1.4649336081
 C         -4.5381385579        2.2563816813        0.0241741508
 H         -3.7182538231        2.9445601905        0.2506562958
 H         -5.0532178123        2.6192817625       -0.8677977837
 H         -6.7884016013       -1.6281217231       -0.4072343078
 H         -7.9147763534       -0.3376771486       -0.8471847281
 H         -6.1315554130        1.0328670884       -1.7337037792
 H         -5.9324572744       -0.6039837377       -2.3882233408
 O         -3.9063199336       -1.2562248374       -1.1721223624
 C         -2.6341491685       -1.5474011725       -0.6984603946
 O         -2.2478126685       -2.6933699617       -0.9973207078
 H          1.2743782294        1.1729384883        0.4103333633
 C          1.3532520183        0.4712085046       -0.4067286763
 C          0.4834479924       -0.6073547821       -0.4855623479
 C          0.5978824596       -1.4821462476       -1.5620841207
 C          1.5588407228       -1.2738526223       -2.5337221806
 C          2.4349116893       -0.2059077213       -2.4434146883
 C          2.3297758519        0.6735343784       -1.3733612175
 N          3.2062280539        1.7693116616       -1.2531847206
 S          4.0939961325        1.9315173422        0.1569902405
 O          3.2180482033        2.2149629781        1.2637927161
 O          5.0949595374        2.9295035690       -0.1464416064
 C          4.8682535653        0.3386810288        0.3695043039
 C          6.1208109725        0.1285479196       -0.1736101708
 C          6.6919219319       -1.1298682153       -0.0751027885
 C          5.9985584221       -2.1550562562        0.5505406860
 C          4.7407724298       -1.9288730585        1.0880738882
 C          4.1675001010       -0.6703441515        0.9994171836
 H          3.1934080105       -0.4573740160        1.4078485353
 H          4.1995645053       -2.7248824140        1.5737479848
 H          6.4406039650       -3.1362810016        0.6217133748
 H          7.6715737119       -1.3081073231       -0.4883985347
 H          6.6251258023        0.9552821621       -0.6472879337
 H          3.8123866394        1.8929450276       -2.0522481031
 H          3.1883050468       -0.0477222430       -3.2003690879
 H          1.6317949065       -1.9553361691       -3.3675860004
 H         -0.0887583159       -2.3104086033       -1.6408824062
 C         -0.5650831653       -0.7995536613        0.5844902249
 H         -0.4214342781       -0.0067872812        1.3318799909
 C         -0.4095399192       -2.1401254131        1.2748771416
 C          0.6338740747       -2.2945351821        2.3387264321
 C         -0.8181477250       -2.2736937436        2.7097422852
 H         -1.2862846373       -3.1927954013        3.0284567080
 H         -1.2051180367       -1.3936068679        3.2033017019
 H          1.2268147295       -1.4274247588        2.5900465401
 H          1.1667512409       -3.2302677501        2.4059529593
 H         -0.5999891105       -2.9855731576        0.6275125717
 O         -1.9530622150        1.6161618029        0.9261786247
