  62
        -98.94467266
 C         -2.1400040997       -0.9915100439       -0.4299719376
 C         -3.1784875314       -1.2180525573        0.5072069699
 C         -4.4441761328       -0.5265698990        0.2423594981
 C         -4.5609471662        0.2574276033       -0.8448538492
 C         -5.7939497551        1.0114710008       -1.2632162584
 C         -5.9575542451        2.3719464926       -0.5718310267
 C         -6.3590697702        2.3079962842        0.9023410113
 H         -6.6483411452        3.3181055954        1.1992237950
 H         -7.2387666731        1.6727470225        1.0107617642
 C         -5.2478184876        1.8171345031        1.8408476717
 H         -5.1951350040        2.4698827513        2.7151309270
 H         -4.2834151881        1.8874022351        1.3320398273
 C         -5.4355502925        0.3888735012        2.3525983015
 H         -6.3316608140        0.3377016756        2.9749450099
 H         -4.5762679875        0.1337568993        2.9778694238
 C         -5.5477503049       -0.6688692242        1.2467234977
 H         -5.4545064994       -1.6560520669        1.7058405857
 H         -6.5192581752       -0.6006240650        0.7578619004
 H         -5.0228469143        2.9288808400       -0.6714241454
 H         -6.7309149360        2.9216571561       -1.1133861204
 H         -5.7049109233        1.1806041110       -2.3385311733
 H         -6.6778373319        0.3999470309       -1.0796620081
 O         -3.5429700452        0.4430330918       -1.7259335456
 C         -2.3040186072       -0.1532600526       -1.5326561650
 O         -1.4625257460        0.1319339347       -2.4060298441
 O         -3.0533680585       -1.9652997334        1.5134578103
 C         -0.7970625459       -1.6616789634       -0.1908331249
 C          0.2147216620       -0.5936459841        0.1413669864
 C          0.1557200055        0.0177553056        1.3915368945
 C          1.0305517429        1.0339830993        1.7244959914
 C          1.9829537073        1.4651891349        0.8171553677
 C          2.0508808057        0.8610106673       -0.4308575267
 C          1.1794794586       -0.1707382871       -0.7588182557
 H          1.2370940859       -0.6199140932       -1.7373971065
 N          3.0132427910        1.2938123379       -1.3562593123
 S          4.5713798713        1.5699240274       -0.8208373094
 O          4.6490817794        2.8611679642       -0.1835838217
 O          5.4101344516        1.3898550315       -1.9849356715
 C          4.8834661108        0.2860578527        0.3786890101
 C          4.8313650024       -1.0268138037       -0.0464819791
 C          5.0395209936       -2.0388768998        0.8759997766
 C          5.2934831795       -1.7227321917        2.2020938224
 C          5.3465448289       -0.3999649921        2.6124469715
 C          5.1382927762        0.6166078271        1.6938187372
 H          5.1700124436        1.6578740260        1.9703645094
 H          5.5461082179       -0.1569722755        3.6436827407
 H          5.4516235822       -2.5130885671        2.9188100703
 H          5.0002930092       -3.0686170063        0.5588592071
 H          4.6382591081       -1.2386038367       -1.0857686644
 H          2.9943384601        0.8005705972       -2.2359406441
 H          2.6611355407        2.2697004265        1.0509672070
 H          0.9699824346        1.4997240552        2.6963634657
 H         -0.5965873665       -0.3107107551        2.0952045587
 H         -0.9414977727       -2.2836028398        0.7032774868
 C         -0.4017572216       -2.5551410585       -1.3466593488
 C          0.6579799545       -3.5955118954       -1.1445643902
 C         -0.7741154443       -4.0057160936       -1.3073386161
 H         -1.0741160778       -4.4844292569       -2.2275597562
 H         -1.3078346369       -4.3606647264       -0.4380190234
 H          1.3441847224       -3.7983813121       -1.9526615854
 H          1.0966340599       -3.6718208359       -0.1613972215
 H         -0.4547785661       -2.0588169970       -2.3084108200
