  62
        -98.93558090
 C         -1.9389017559       -0.9983819468        0.2192586065
 C         -2.3708685595       -0.0040657094        1.1283074637
 C         -2.5863632395        1.3497365433        0.5901633914
 C         -2.3261352001        1.5888932213       -0.7083833336
 C         -2.3841799814        2.8665943817       -1.5202771796
 C         -3.0772324086        4.1108612439       -0.9714763872
 C         -4.5949919954        3.9886715769       -0.8369431446
 H         -4.9672751134        4.8855659942       -0.3375528978
 H         -5.0297879230        3.9596372120       -1.8390696442
 C         -5.0924329013        2.7572937131       -0.0843394800
 H         -6.1852547303        2.7876752280       -0.0783891452
 H         -4.7977338160        1.8548588964       -0.6238531693
 C         -4.6239144436        2.6433311595        1.3648678306
 H         -5.1702699704        1.8150825056        1.8241429955
 H         -4.8806448712        3.5549590357        1.9076735813
 C         -3.1224391441        2.3673496092        1.5560520954
 H         -2.9793896582        1.9435792872        2.5546578182
 H         -2.5400119404        3.2847939442        1.5082493855
 H         -2.8721854259        4.9182833241       -1.6796748323
 H         -2.6300083428        4.4016717468       -0.0254159358
 H         -1.3394214543        3.1154394072       -1.7394019689
 H         -2.8419601058        2.5927034950       -2.4763961105
 O         -1.8800891078        0.6058832035       -1.5427582558
 C         -1.6559615900       -0.6912696891       -1.1117654258
 O         -1.2309783114       -1.4500318040       -2.0031991869
 O         -2.5598109366       -0.2347925162        2.3545468383
 C         -1.6413635070       -2.3827827955        0.7686468542
 C         -0.2675325016       -2.8048357301        0.3106878136
 C          0.0071325736       -3.9976878523       -0.3432799751
 C          1.2934463806       -4.2768073211       -0.7730219992
 C          2.3205087897       -3.3733966837       -0.5765538816
 C          2.0568683437       -2.1803701689        0.0886965908
 C          0.7779869545       -1.9198212334        0.5466416665
 H          0.5814491851       -0.9875713711        1.0583875020
 N          3.0790983936       -1.2418329421        0.3222378954
 S          2.6722868012        0.3969756667        0.3228525139
 O          2.1481987742        0.7418851507        1.6221170092
 O          1.8382880532        0.7213071211       -0.8128223066
 C          4.2924036313        1.1173333417        0.1269404425
 C          4.7160274924        1.5015456541       -1.1311860376
 C          5.9895277079        2.0290307127       -1.2779873797
 C          6.8144226814        2.1588497347       -0.1707890069
 C          6.3750994445        1.7692591195        1.0858997878
 C          5.1026017102        1.2423747571        1.2397648412
 H          4.7128050314        0.9342405668        2.1958075355
 H          7.0179410349        1.8743478183        1.9448269150
 H          7.8049101111        2.5691228857       -0.2879133653
 H          6.3318481213        2.3354680724       -2.2532648016
 H          4.0357592098        1.3883814054       -1.9603903670
 H          3.9000914918       -1.4142629150       -0.2425111369
 H          3.3158652755       -3.5819191833       -0.9383958599
 H          1.4933834435       -5.2036806458       -1.2891000512
 H         -0.7887044858       -4.6956781945       -0.5446232875
 H         -1.6018502381       -2.2361630620        1.8620802444
 C         -2.7224077222       -3.4205671262        0.5100707160
 C         -4.1432693838       -3.0098029921        0.2676152927
 C         -3.3391177055       -3.6151746067       -0.8414999196
 H         -3.5779931581       -4.6210998294       -1.1545644230
 H         -2.9965919238       -2.9765534209       -1.6401764347
 H         -4.9307390809       -3.5969114246        0.7158839545
 H         -4.3560170451       -1.9512675927        0.2256388882
 H         -2.5797093927       -4.3123016250        1.1128722508
