  62
        -98.93165547
 C          2.2197423310        0.0527301877        0.3696128686
 C          3.2481364021        0.8160095578       -0.2348861472
 C          4.4829197304        0.0877367863       -0.5750555894
 C          4.5599336181       -1.2335007337       -0.3391407064
 C          5.7718735925       -2.0931960661       -0.5601702346
 C          6.7859651400       -1.8750218495        0.5811765958
 C          8.1012266428       -1.2304487803        0.1426117698
 H          8.6352973481       -0.9310773433        1.0469357420
 H          8.7106642531       -1.9797339981       -0.3669580809
 C          7.9751614846       -0.0189895986       -0.7862164411
 H          8.9466139680        0.4799505392       -0.7907333628
 H          7.7944519331       -0.3569940168       -1.8076223875
 C          6.8971783320        1.0059328888       -0.4107846148
 H          7.2957410195        2.0038979458       -0.6041836204
 H          6.6723528455        0.9552992110        0.6547767346
 C          5.5886144972        0.8826845674       -1.2137499350
 H          5.8045126751        0.4758966881       -2.2053562291
 H          5.1689521930        1.8831079774       -1.3532519352
 H          7.0148262875       -2.8322037821        1.0522109980
 H          6.3120685226       -1.2553625075        1.3454254406
 H          5.4350825789       -3.1298937967       -0.5761889985
 H          6.2208599482       -1.8567239593       -1.5222113874
 O          3.5409827938       -1.9406627999        0.2155553598
 C          2.3627534897       -1.3210751393        0.5892950217
 O          1.5263529323       -2.0906084018        1.1055068534
 O          3.1658570688        2.0470620930       -0.4903185013
 C          0.8947173808        0.6408385235        0.8262996699
 C         -0.0915952477        0.8007889588       -0.3063215980
 C          0.1881650110        1.5930817152       -1.4149172031
 C         -0.7551136755        1.7564918308       -2.4126011983
 C         -1.9994506598        1.1591918580       -2.3139362297
 C         -2.2869973163        0.3634384672       -1.2115811880
 C         -1.3290163087        0.1797521854       -0.2244172287
 H         -1.5638490402       -0.4533188423        0.6194012388
 N         -3.5349786419       -0.2667262933       -1.0807384176
 S         -4.1994433970       -0.3743132075        0.4691595804
 O         -3.9451293264        0.8461324393        1.2002864496
 O         -3.7450181731       -1.5947675608        1.0876185148
 C         -5.9341918024       -0.5053851844        0.0763780287
 C         -6.7022078015        0.6434153358        0.0390207447
 C         -8.0430354132        0.5428764474       -0.2969953109
 C         -8.5896417048       -0.6973463760       -0.5910635376
 C         -7.8066448847       -1.8414334909       -0.5479564996
 C         -6.4652143792       -1.7482850625       -0.2120968795
 H         -5.8201419664       -2.6097879433       -0.1566113305
 H         -8.2358003799       -2.8043415477       -0.7733783509
 H         -9.6333243859       -0.7732093267       -0.8522338206
 H         -8.6550589887        1.4298551816       -0.3272364418
 H         -6.2365442517        1.5841896883        0.2852131689
 H         -4.2114238500        0.0519911536       -1.7610361131
 H         -2.7403955376        1.3023940603       -3.0859050949
 H         -0.5245339576        2.3707485745       -3.2699925840
 H          1.1495326617        2.0779813245       -1.4833863744
 H          0.4701368938       -0.0953014972        1.5235615905
 C          1.0409196274        1.9611967930        1.5615529917
 C         -0.1079101487        2.4528039222        2.3877584121
 C          1.1426094180        1.9654860612        3.0553045713
 H          1.7913937958        2.6889816189        3.5258985185
 H          1.1112614768        1.0112594735        3.5617988389
 H         -0.3160159330        3.5118079394        2.3991002034
 H         -0.9932989630        1.8345640665        2.4361812938
 H          1.6207043559        2.6938100107        1.0160185840
