  62
        -98.93647611
 C         -1.8977927274       -0.6482764381       -0.4070319519
 C         -2.9477950345       -1.0077392233        0.4721916444
 C         -4.2211189341       -0.2796557067        0.3275602740
 C         -4.3074091914        0.7045487152       -0.5851540532
 C         -5.4865324753        1.5818697010       -0.9223315951
 C         -6.2911635319        2.1440761871        0.2596697256
 C         -7.6793537950        1.5177594239        0.4046448853
 H         -8.3252247338        2.2198701793        0.9366688921
 H         -8.1030709143        1.3773396697       -0.5920047217
 C         -7.7179152673        0.1910928739        1.1610906873
 H         -7.5329751467        0.3746361651        2.2217371954
 H         -8.7303016217       -0.2101395912        1.0728430554
 C         -6.7263375594       -0.8674586280        0.6743904130
 H         -6.6760250851       -0.8714582272       -0.4138635752
 H         -7.1055438102       -1.8451117409        0.9793337884
 C         -5.3173412741       -0.7076485339        1.2646812615
 H         -5.3441893390       -0.0185257701        2.1137059381
 H         -4.9769265463       -1.6664273397        1.6678300396
 H         -5.7245098565        2.0292374633        1.1824059052
 H         -6.4214462489        3.2146488175        0.0929958287
 H         -5.0687928275        2.4025768543       -1.5100755182
 H         -6.1497449992        1.0273518122       -1.5911509344
 O         -3.2621814963        1.0336403459       -1.3960184505
 C         -2.0435450343        0.3783455778       -1.3385329262
 O         -1.2050224123        0.8001435947       -2.1582300289
 O         -2.8302647277       -1.9117339523        1.3423104575
 C         -0.5793570316       -1.3932624562       -0.2792677690
 C          0.4426200974       -0.4744748073        0.3425866697
 C          0.5291213959       -0.3801874509        1.7283640354
 C          1.4433482114        0.4693266464        2.3239841212
 C          2.2903390024        1.2426243300        1.5497371146
 C          2.2050342931        1.1607496449        0.1662800930
 C          1.2941655196        0.3000497652       -0.4306525194
 H          1.2256788827        0.2595443008       -1.5062347974
 N          3.0764987849        1.9349946149       -0.6230377975
 S          4.7087907446        1.7812321597       -0.2795171557
 O          5.0502415306        2.6339778811        0.8319549901
 O          5.3960643969        2.0584681507       -1.5213986396
 C          4.9083412246        0.0704064384        0.1877597600
 C          5.2721507913       -0.2548463090        1.4782314238
 C          5.3617657765       -1.5917096992        1.8321064655
 C          5.0812138820       -2.5742015519        0.8957031807
 C          4.7192413295       -2.2311677861       -0.3980940630
 C          4.6296302286       -0.8967601599       -0.7577614574
 H          4.3550551030       -0.5963897192       -1.7562080973
 H          4.5010098034       -2.9974599512       -1.1245040861
 H          5.1446855993       -3.6143212644        1.1740786587
 H          5.6442865598       -1.8617921955        2.8368120299
 H          5.4769254822        0.5408537154        2.1756068820
 H          2.9028314964        1.8485896017       -1.6138684709
 H          3.0108948856        1.9114578626        1.9922721083
 H          1.4994005490        0.5297753919        3.4001131795
 H         -0.1386227924       -0.9769851448        2.3334350325
 H         -0.7776325984       -2.2056341798        0.4323750758
 C         -0.1204199476       -1.9949819816       -1.5919099292
 C          1.0224626386       -2.9649201921       -1.5850045263
 C         -0.3689961104       -3.4472540284       -1.8617759636
 H         -0.6217789299       -3.7471497673       -2.8678439260
 H         -0.8741520514       -4.0187104934       -1.0971299920
 H          1.7267426933       -2.9355496661       -2.4022035920
 H          1.4635489382       -3.2034973649       -0.6291363775
 H         -0.2037655174       -1.3158923316       -2.4313119565
