  62
        -98.94952882
 C         -1.6378668001        0.8075646485        0.7003059688
 C         -1.4987684836        1.5895759634       -0.4713945989
 C         -0.5143455509        2.6797302397       -0.4009413175
 C          0.2052431911        2.8480102951        0.7227683208
 C          1.2355932692        3.9199536696        0.9337613517
 C          2.6456632087        3.4590599784        0.5428302334
 C          2.7327837807        2.8142669580       -0.8406234984
 H          3.7852349845        2.5861753862       -1.0277607921
 H          2.2005942538        1.8601721856       -0.8429409596
 C          2.1868095343        3.6783121841       -1.9851828401
 H          2.8810345105        3.6181798024       -2.8261088400
 H          2.1379925772        4.7238776620       -1.6768769338
 C          0.8186906796        3.2313378268       -2.5050059366
 H          0.8327266525        2.1503172401       -2.6708980812
 H          0.6459165681        3.7122981865       -3.4719690779
 C         -0.3784489971        3.5665594487       -1.6057899575
 H         -0.3344083169        4.6177753461       -1.3104709102
 H         -1.2886401573        3.4119294117       -2.1929739523
 H          3.3097369186        4.3251385634        0.5803649504
 H          2.9954934495        2.7340104235        1.2816440346
 H          0.9571837910        4.7949069166        0.3490689131
 H          1.2338653218        4.1878384207        1.9921866870
 O          0.0809217682        2.0423333821        1.8093939721
 C         -0.8351255032        1.0012037373        1.8229276197
 O         -0.8392840527        0.3337542329        2.8769844904
 O         -2.1793455403        1.4056436706       -1.5146225576
 C         -2.6344267245       -0.3386249603        0.7360834741
 C         -2.2767600684       -1.3385900172       -0.3364122004
 C         -3.1929381475       -1.8944839229       -1.2189396629
 C         -2.7692503141       -2.7764576958       -2.1987509365
 C         -1.4328493847       -3.1065216109       -2.3296914121
 C         -0.5104681565       -2.5655802488       -1.4407897050
 C         -0.9436797772       -1.7148388038       -0.4388633997
 H         -0.2269873064       -1.3010417817        0.2554619962
 N          0.8558284250       -2.8734292179       -1.5248130826
 S          1.9791806090       -1.6854413687       -1.1587890791
 O          1.5089076308       -0.3680374518       -1.5139242367
 O          3.1906596639       -2.1246195466       -1.8211703270
 C          2.2092382801       -1.8271836146        0.5998934930
 C          2.3995274959       -3.0839487248        1.1395405798
 C          2.5932611333       -3.2013791189        2.5062244987
 C          2.5954222027       -2.0678468313        3.3054698192
 C          2.4103403631       -0.8126836187        2.7478924804
 C          2.2180099454       -0.6901205478        1.3815282982
 H          2.0537598924        0.2679314658        0.9132369631
 H          2.3956645205        0.0697700635        3.3674393080
 H          2.7383795761       -2.1603331000        4.3704986222
 H          2.7372396531       -4.1752618990        2.9458165384
 H          2.3884980722       -3.9405993440        0.4865435106
 H          1.1244607809       -3.4151929931       -2.3333588043
 H         -1.1019021919       -3.7711593723       -3.1131840754
 H         -3.4889293926       -3.1981711051       -2.8840396366
 H         -4.2348243768       -1.6279921470       -1.1501604283
 H         -2.5035940479       -0.8246631308        1.7142654278
 C         -4.0517899728        0.1835668460        0.6339323252
 C         -5.1825133640       -0.5768634099        1.2574522198
 C         -4.7184260029        0.7103892197        1.8679237943
 H         -5.3491358202        1.5822994861        1.7810291201
 H         -4.1567691738        0.6683448340        2.7899367933
 H         -6.1369826998       -0.5875368619        0.7531232926
 H         -4.9437323783       -1.4952687657        1.7719377116
 H         -4.2356329318        0.7077979120       -0.2967741326
