  62
        -98.93517584
 C         -1.5620298775        0.5305717353       -0.8513661741
 C         -2.7880520951        1.0706010637       -0.4012236656
 C         -3.9212745482        0.1295076974       -0.2616515138
 C         -3.7285222717       -1.1732005510       -0.5364174624
 C         -4.7098692130       -2.3103997126       -0.4285598186
 C         -4.9573083369       -2.7485068740        1.0234571956
 C         -5.1646838139       -1.6045949625        2.0122190230
 H         -5.2306472423       -2.0388098753        3.0133726546
 H         -4.2873168984       -0.9554345180        1.9983783121
 C         -6.4204986251       -0.7671578512        1.7826001910
 H         -7.2974260340       -1.4173470286        1.8200688114
 H         -6.4955563008       -0.0613751852        2.6138616530
 C         -6.4614732471        0.0325713009        0.4783757437
 H         -6.7190371625       -0.6017323144       -0.3655549275
 H         -7.2682560930        0.7654998695        0.5718734288
 C         -5.1907482226        0.8203190113        0.1763368631
 H         -5.4125556676        1.5503206239       -0.6115823468
 H         -4.9234940737        1.4194682095        1.0541848509
 H         -4.0891535372       -3.3226877810        1.3560193799
 H         -5.8256615739       -3.4094221484        1.0404146298
 H         -5.6432409378       -2.0464698183       -0.9168537884
 H         -4.2749336145       -3.1501303117       -0.9750897642
 O         -2.5182646767       -1.6554535612       -0.9407931447
 C         -1.4232406504       -0.8359566707       -1.1123714220
 O         -0.3952928492       -1.4260372519       -1.5009288670
 H          2.0258188663        0.2929846460       -0.2822741614
 C          1.6243129440        0.9558859994        0.4687076316
 C          0.4123630867        1.5911857119        0.2402483865
 C         -0.1077416182        2.4220117585        1.2270127322
 C          0.5834646708        2.6155005211        2.4087972941
 C          1.8056800482        2.0023097719        2.6223311414
 C          2.3293668615        1.1629135700        1.6458256419
 N          3.5509574795        0.5079401005        1.8445360296
 S          4.5798472729        0.1826358580        0.5687917645
 O          5.8696386200       -0.0151985773        1.1954472893
 O          4.5188411146        1.2115330740       -0.4429252467
 C          4.0095630712       -1.3723674587       -0.0809507062
 C          3.7569992097       -1.5019528935       -1.4315163460
 C          3.3310868959       -2.7264414331       -1.9201947022
 C          3.1682032252       -3.7950195491       -1.0532189794
 C          3.4302988373       -3.6501750895        0.3007025055
 C          3.8562315704       -2.4284069581        0.7949703581
 H          4.0716733775       -2.2780347889        1.8398125006
 H          3.3004031978       -4.4847871080        0.9709264119
 H          2.8317712819       -4.7454372563       -1.4364271018
 H          3.1210310437       -2.8393876592       -2.9716152181
 H          3.8897000055       -0.6434945030       -2.0716574873
 H          4.0469004661        0.7617208223        2.6858856279
 H          2.3496654318        2.1665007828        3.5402063590
 H          0.1713128813        3.2606031416        3.1701815473
 H         -1.0623953952        2.8975838500        1.0641151509
 C         -0.3073867705        1.3616129120       -1.0670731011
 H          0.3482691920        0.7441144552       -1.6963516264
 C         -0.5595080543        2.6715695996       -1.7877619239
 C          0.6088123536        3.3933837338       -2.3866908623
 C         -0.4010366976        2.7325105463       -3.2755185557
 H         -1.0775159612        3.3563315052       -3.8403994030
 H         -0.1138825456        1.8251932839       -3.7872163524
 H          0.6264696186        4.4715757963       -2.3414694889
 H          1.5828798769        2.9358481425       -2.2893413279
 H         -1.3481042665        3.2657406135       -1.3464296827
 O         -2.9669975108        2.2855184910       -0.1184885988
