  62
        -98.93581625
 C          2.6925591892        1.1476579849       -0.3961277848
 C          2.4431675381       -0.0528397656       -1.1052450680
 C          3.3765355671       -1.1601281173       -0.8411082735
 C          4.3899513137       -0.9853117737        0.0250867303
 C          5.3740770087       -2.0452575645        0.4248065617
 C          4.8941234520       -2.8084492099        1.6672711619
 C          3.4478214244       -3.2946736613        1.5729358537
 H          2.7814315900       -2.4289420244        1.5541725042
 H          3.2302128815       -3.8460768956        2.4902337644
 C          3.1557833731       -4.1867790441        0.3581878887
 H          2.5624488612       -5.0422420052        0.6876197008
 H          4.0898035424       -4.5773863601       -0.0472010405
 C          2.3662051932       -3.5008555301       -0.7582842274
 H          1.4765459223       -3.0256381745       -0.3371553609
 H          2.0275233800       -4.2705793100       -1.4567686510
 C          3.1348706376       -2.4515516201       -1.5715652810
 H          2.5255460432       -2.1940392841       -2.4427851733
 H          4.0764761609       -2.8764363293       -1.9246552158
 H          4.9767569730       -2.1472019102        2.5330139519
 H          5.5573283225       -3.6606893598        1.8262539828
 H          5.5162942480       -2.7340661250       -0.4056241291
 H          6.3259093080       -1.5619493525        0.6513857645
 O          4.6051599847        0.1839160413        0.6800961209
 C          3.7643534524        1.2661430524        0.4948621999
 O          4.0744866633        2.2727190814        1.1628982132
 H         -0.0914018533        0.5103827465       -0.5794147563
 C         -0.2869395858        1.2594633535        0.1743453704
 C          0.6099856326        2.3084651503        0.3279857532
 C          0.3482967409        3.2715925523        1.2943063620
 C         -0.7851419862        3.1842473900        2.0848409944
 C         -1.6774483884        2.1392659849        1.9276110432
 C         -1.4228305085        1.1697569550        0.9655007029
 N         -2.3178453849        0.0917649259        0.7994023417
 S         -3.9434726506        0.5177796748        0.6060657970
 O         -4.0642511496        1.5787231342       -0.3697372144
 O         -4.4962882494        0.7977086448        1.9077259664
 C         -4.6298301030       -0.9978611146       -0.0287067412
 C         -4.7751357322       -1.1541820873       -1.3938602200
 C         -5.2893314517       -2.3458446018       -1.8803521783
 C         -5.6428771212       -3.3559810466       -0.9984278956
 C         -5.4892929611       -3.1843343000        0.3693822098
 C         -4.9777474606       -1.9947477267        0.8627016871
 H         -4.8496577425       -1.8123861251        1.9168285461
 H         -5.7670733860       -3.9716745237        1.0513624867
 H         -6.0429547702       -4.2819682774       -1.3801933966
 H         -5.4114810588       -2.4811828708       -2.9429754490
 H         -4.4942460248       -0.3396773703       -2.0424886091
 H         -2.0257992458       -0.5058736450        0.0363846539
 H         -2.5705045615        2.0675262857        2.5271948662
 H         -0.9778931832        3.9400405955        2.8314587965
 H          1.0437361249        4.0874331720        1.4293430731
 C          1.8344198530        2.3948184889       -0.5465722385
 H          2.4588328624        3.2157725188       -0.1619092604
 C          1.5136891824        2.7110629443       -2.0035596431
 C          0.1264127089        2.7802719922       -2.5630939296
 C          0.9130324372        4.0381724611       -2.3621499100
 H          1.2893684198        4.5636777699       -3.2266997605
 H          0.6179968338        4.6823850557       -1.5471193526
 H         -0.7107550176        2.5955079015       -1.9073559881
 H         -0.0228445566        2.4160992476       -3.5684197681
 H          2.2757776209        2.3316371231       -2.6764003566
 O          1.4972508320       -0.2160358939       -1.9200359228
