  62
        -98.93382820
 C         -2.0330988483       -0.5506943708        0.1034127041
 C         -2.7282449942        0.6192654453        0.5005414053
 C         -4.0778576566        0.8151606883       -0.0515250780
 C         -4.5763422265       -0.0987561848       -0.9012944666
 C         -5.9024659911       -0.0930909773       -1.6200199763
 C         -7.1384416979        0.3491727643       -0.8257525416
 C         -7.1195805510       -0.0248785853        0.6635383772
 H         -6.3051907010       -0.7233030403        0.8634865843
 H         -8.0530316673       -0.5323083361        0.9140601293
 C         -6.9850805219        1.1913167709        1.5829497013
 H         -7.3406016958        0.9194769985        2.5798356598
 H         -7.6351871828        1.9858733724        1.2101458496
 C         -5.5672848922        1.7390756356        1.7420942148
 H         -4.9613021865        1.0367311873        2.3208653279
 H         -5.6270530077        2.6630166253        2.3224668409
 C         -4.8177938197        2.0293973689        0.4314552438
 H         -4.0540836774        2.7834716130        0.6409758153
 H         -5.4899675839        2.4202219073       -0.3286834955
 H         -8.0030858628       -0.1119454768       -1.3062899282
 H         -7.2662359159        1.4266677659       -0.9197078757
 H         -6.0400765880       -1.1193534410       -1.9692223317
 H         -5.8035033109        0.5376347342       -2.5084428325
 O         -3.8718868395       -1.2048608506       -1.2660906457
 C         -2.5924622932       -1.4642626360       -0.7895089245
 O         -2.0989911993       -2.5149530100       -1.2360963442
 O         -2.2343904568        1.4709460137        1.2882314447
 C         -0.6444592599       -0.7417624094        0.6854987941
 C          0.3970188628       -0.1146681439       -0.2050201658
 C          0.4641214191       -0.4205045245       -1.5607217269
 C          1.4331627482        0.1543287843       -2.3628004851
 C          2.3561988324        1.0381790626       -1.8309621936
 C          2.3002780840        1.3462343499       -0.4786953928
 C          1.3242632879        0.7705574731        0.3245463680
 H          1.2754406594        1.0274612601        1.3740550192
 N          3.2637312191        2.2173668886        0.0693706208
 S          4.8587559243        1.7184956238       -0.0936662509
 O          5.5893966625        2.4174314147        0.9386397554
 O          5.2925228867        1.9462047825       -1.4480516636
 C          4.7900938263       -0.0300098203        0.2491456450
 C          4.7012194692       -0.4331413520        1.5670729457
 C          4.5391270629       -1.7801975752        1.8467461431
 C          4.4551618770       -2.6951870663        0.8081783376
 C          4.5501402516       -2.2748383385       -0.5090048763
 C          4.7191273274       -0.9295218139       -0.7953461492
 H          4.7998738002       -0.5640542117       -1.8056332215
 H          4.4856952959       -2.9891355922       -1.3139181352
 H          4.3113457466       -3.7409791259        1.0273232965
 H          4.4692657226       -2.1119378925        2.8702953245
 H          4.7713751793        0.3088145558        2.3466478565
 H          3.0760839184        2.4668812604        1.0302031673
 H          3.1220109640        1.4904535388       -2.4402759128
 H          1.4710161597       -0.0888718099       -3.4139017265
 H         -0.2487496545       -1.1175311604       -1.9748445455
 H         -0.6588122126       -0.1691588634        1.6265029409
 C         -0.3217341730       -2.1878197132        1.0378622507
 C          0.7449911578       -2.9887855477        0.3587746298
 C          0.9531790171       -2.5079868456        1.7611151161
 H          0.9249283717       -3.2242270622        2.5678276268
 H          1.6546844078       -1.7001988155        1.9078772278
 H          0.5464738579       -4.0357047748        0.1892822911
 H          1.3155719117       -2.5210136993       -0.4278817222
 H         -1.2062974338       -2.7353354332        1.3457114479
