  62
        -98.94947840
 C         -0.8594811212       -1.7499923036       -0.2688918852
 C         -2.1448567425       -1.6978342982        0.3166564915
 C         -3.0220328943       -0.6233210447       -0.1601576327
 C         -2.5746250767        0.2386055574       -1.0911739260
 C         -3.3464884836        1.3941116695       -1.6693182980
 C         -3.3231654866        2.6570245246       -0.7967376650
 C         -4.1925288679        2.5987727358        0.4596505786
 H         -4.2770750147        3.6200163317        0.8369247824
 H         -5.1964205217        2.2633355910        0.1958902587
 C         -3.6240525592        1.7116781453        1.5761188320
 H         -2.5573070093        1.5440526225        1.4043559760
 H         -3.7043436418        2.2360606129        2.5317528143
 C         -4.3312819948        0.3660676268        1.7404328332
 H         -5.3562589284        0.5322820570        2.0813680727
 H         -3.8071239250       -0.2019555329        2.5134369945
 C         -4.3758294978       -0.4906343401        0.4693084855
 H         -4.7104030498       -1.4935544840        0.7474507153
 H         -5.0863354607       -0.0698734233       -0.2421982922
 H         -2.2922957895        2.8652986978       -0.4983303076
 H         -3.6675795754        3.4893387782       -1.4154750185
 H         -2.8831133362        1.6283601501       -2.6301274909
 H         -4.3801298446        1.0947293656       -1.8467170789
 O         -1.3393386934        0.1401480998       -1.6492998571
 C         -0.4451036757       -0.8385505342       -1.2408322099
 O          0.6606128176       -0.7968893045       -1.8117211290
 H          0.3865038113       -0.3246422868        1.2899736412
 C          1.3329358853       -0.8413750318        1.2416158137
 C          1.3973230823       -2.1261146991        0.7214029525
 C          2.6317096000       -2.7661800682        0.6993599555
 C          3.7637441672       -2.1264899315        1.1728627567
 C          3.6994867105       -0.8293267234        1.6490907037
 C          2.4706954957       -0.1806899827        1.6730479283
 N          2.3485009593        1.1464627974        2.1231463863
 S          1.4190624769        2.2209891354        1.2445256947
 O          1.8372264540        3.5226279893        1.7284384782
 O          0.0160200464        1.9283832625        1.4022021691
 C          1.8912291037        2.0746843328       -0.4699073670
 C          3.1929292510        1.7716552539       -0.8133392720
 C          3.5357274678        1.7172663992       -2.1542453047
 C          2.5818051142        1.9761505496       -3.1249388181
 C          1.2828244552        2.2924514919       -2.7643158435
 C          0.9344994186        2.3424672795       -1.4254495426
 H         -0.0706500897        2.5659121538       -1.1053507652
 H          0.5357423965        2.4870423146       -3.5171496382
 H          2.8498803921        1.9260377689       -4.1685848547
 H          4.5457121039        1.4670901649       -2.4370799652
 H          3.9237858192        1.5724647354       -0.0470520341
 H          3.2124276987        1.5784951522        2.4179657415
 H          4.5868649952       -0.3243202589        1.9998813735
 H          4.7133782814       -2.6389521381        1.1551146021
 H          2.7055532761       -3.7680080550        0.3086019670
 C          0.1342813362       -2.7845760869        0.2192257293
 H         -0.3557494864       -3.2876487583        1.0673178274
 C          0.4060664395       -3.8124257477       -0.8627888776
 C          0.6325955392       -5.2521262338       -0.5121928939
 C         -0.6473558253       -4.8334702756       -1.1685570138
 H         -0.8174222283       -5.1078347722       -2.1987521175
 H         -1.5461962945       -4.8080071368       -0.5696864407
 H          1.3428151629       -5.8189384718       -1.0952752579
 H          0.5951988550       -5.5270962184        0.5312498467
 H          0.9555931489       -3.3943227945       -1.6987034016
 O         -2.5404318899       -2.5109264193        1.1971260377
