  62
        -98.92576432
 C         -1.3286949368       -1.5087282317       -0.2900596426
 C         -2.6502205468       -1.5737392730        0.2234269994
 C         -3.5213501991       -0.4204360142       -0.0470232114
 C         -3.0277942726        0.6213999469       -0.7397496297
 C         -3.7494376183        1.9107646182       -1.0113885413
 C         -3.7280842741        2.7965185920        0.2505944272
 C         -5.1033307168        3.0383937976        0.8736219773
 H         -5.6425026273        3.7725589021        0.2711149643
 H         -4.9434170532        3.4772012487        1.8609028628
 C         -5.9991375805        1.8040416444        1.0167435388
 H         -6.4630128261        1.5731918452        0.0565449637
 H         -6.8102766231        2.0775151877        1.6950874082
 C         -5.3182895509        0.5368510846        1.5504008466
 H         -6.0146238240        0.0373901148        2.2273283817
 H         -4.4352136287        0.7920782406        2.1368482141
 C         -4.9323813643       -0.4892362985        0.4681138464
 H         -5.6325975953       -0.4175686730       -0.3689293597
 H         -5.0283927415       -1.4936132245        0.8911729279
 H         -3.2885190802        3.7657926972        0.0105838951
 H         -3.0730228660        2.3262812092        0.9870880419
 H         -4.7725585396        1.7041093537       -1.3171123101
 H         -3.2335863255        2.4058059986       -1.8340685771
 O         -1.7586418432        0.6524551195       -1.2128634881
 C         -0.8706503715       -0.3961004197       -1.0008232495
 O          0.2494917618       -0.2027924051       -1.4990420810
 O         -3.0837107432       -2.5554135092        0.8854438836
 C         -0.3976230607       -2.6599587023        0.0540857255
 C          0.7916370763       -2.1165802209        0.8031180705
 C          0.7101643788       -1.9479500043        2.1815818440
 C          1.7647566794       -1.4121036923        2.8977809378
 C          2.9183375471       -1.0151030762        2.2440141508
 C          2.9993339727       -1.1581267789        0.8654147236
 C          1.9530460267       -1.7220968197        0.1515839303
 H          2.0373124236       -1.8223208533       -0.9169651642
 N          4.1350748208       -0.6894800085        0.1327987678
 S          4.3824899020        0.9634613526        0.2261880491
 O          5.4485451616        1.2515613183       -0.7088503352
 O          4.6541951620        1.3798131042        1.5913918760
 C          2.8551271534        1.6885281172       -0.3167010616
 C          1.8810868352        1.9757683956        0.6178271421
 C          0.7098512499        2.5828362864        0.1980226291
 C          0.5350273345        2.8947055733       -1.1402285486
 C          1.5209439521        2.5959008959       -2.0661413833
 C          2.6923664966        1.9840873512       -1.6539271160
 H          3.4845462624        1.7342054831       -2.3409614220
 H          1.3740306574        2.8275875782       -3.1090081285
 H         -0.3824859539        3.3607900547       -1.4638554695
 H         -0.0669579927        2.8032326196        0.9140696215
 H          2.0546391534        1.7250561257        1.6524971663
 H          4.9950951252       -1.1747055917        0.3482128652
 H          3.7409833916       -0.5710489471        2.7840959605
 H          1.6875742306       -1.2983658275        3.9687592548
 H         -0.1979111626       -2.2409171492        2.6905555930
 H         -0.9845005911       -3.2760972306        0.7540044830
 C         -0.0053573921       -3.5791887931       -1.0921990265
 C         -1.0360620102       -4.0268794986       -2.0851395778
 C          0.1001739556       -3.1555135806       -2.5244962687
 H          0.8825139267       -3.6005955412       -3.1222783449
 H         -0.1010663178       -2.1265545012       -2.7718240117
 H         -1.0475018798       -5.0616138993       -2.3930058400
 H         -2.0174468477       -3.5809740819       -2.0094321847
 H          0.7051640111       -4.3324516919       -0.7637045583
