  62
        -98.94505168
 C         -1.1492370955       -1.8446026619       -0.6780714075
 C         -0.4694737880       -2.3604580858        0.4550817902
 C          0.9603765693       -2.6667542464        0.2573764068
 C          1.5316573011       -2.4539023162       -0.9403165737
 C          2.9803399851       -2.6779523827       -1.2615037007
 C          3.8162338869       -1.4128394507       -1.0261309043
 C          3.6105896745       -0.7748273264        0.3478207548
 H          4.3005910828        0.0692203639        0.4221255768
 H          2.6020847739       -0.3614949661        0.4148637309
 C          3.8307997399       -1.7222098767        1.5347625651
 H          4.4106383990       -2.5914294537        1.2201221159
 H          4.4142008807       -1.1981972200        2.2948076564
 C          2.5378454946       -2.1844224052        2.2104842496
 H          1.9054904061       -1.3156451880        2.4126310204
 H          2.7973263893       -2.6319023412        3.1743114477
 C          1.7122043175       -3.2196094907        1.4349582786
 H          2.3562157969       -4.0466283531        1.1255148251
 H          0.9517171227       -3.6125746964        2.1166121720
 H          4.8693567787       -1.6717247395       -1.1511900931
 H          3.5536635575       -0.6734234037       -1.7862164386
 H          3.3592264924       -3.4940689992       -0.6492183212
 H          3.0559644287       -2.9598472066       -2.3132960477
 O          0.8442429540       -1.9751611403       -2.0090719436
 C         -0.4962812674       -1.6448780386       -1.8978064532
 O         -0.9969531364       -1.1926476555       -2.9469332803
 H         -1.2403664675        0.0918525999        1.1415629266
 C         -1.8624294218        0.7010378073        0.5031399851
 C         -2.6559570988        0.1025306239       -0.4659026335
 C         -3.4626690744        0.9087301694       -1.2599805528
 C         -3.4680811630        2.2818494002       -1.0899671408
 C         -2.6479023942        2.8770090004       -0.1484859933
 C         -1.8330905263        2.0805545203        0.6484683244
 N         -0.9710109953        2.6560583290        1.5993957870
 S          0.6386651515        2.1949701294        1.6315717155
 O          0.7561423141        0.8267660793        2.0579954888
 O          1.2782783886        3.1862829193        2.4684150423
 C          1.2040717534        2.3777563794       -0.0492523209
 C          1.8242991013        3.5533193111       -0.4248834699
 C          2.2221393099        3.7097103450       -1.7427703740
 C          1.9831612663        2.6991167723       -2.6624273065
 C          1.3550685333        1.5266236301       -2.2716987451
 C          0.9646107166        1.3622372804       -0.9525109462
 H          0.4766213473        0.4580619319       -0.6236761613
 H          1.1522125561        0.7361805602       -2.9784376976
 H          2.2870832291        2.8224374108       -3.6899252021
 H          2.7137580009        4.6184233123       -2.0507231480
 H          1.9934197252        4.3104223138        0.3236653893
 H         -1.0399840032        3.6621743488        1.6603200588
 H         -2.6330230497        3.9498454199       -0.0308715667
 H         -4.1014822038        2.8971406522       -1.7102957273
 H         -4.0734698434        0.4538213242       -2.0255636138
 C         -2.6023067359       -1.3920510892       -0.6686077539
 H         -2.9810582199       -1.5949864910       -1.6839606547
 C         -3.4890056275       -2.1551559200        0.3024860102
 C         -3.9782552075       -1.5776567858        1.5928324079
 C         -4.9321382832       -1.7741223143        0.4551026749
 H         -5.6680995557       -2.5604613629        0.5265303237
 H         -5.2739129317       -0.8924790748       -0.0656642117
 H         -4.0340489294       -2.2372223047        2.4452860001
 H         -3.6809908334       -0.5716065424        1.8463830924
 H         -3.2625773227       -3.2159230276        0.3083707493
 O         -1.0047687554       -2.5757987667        1.5714856554
