  62
        -98.95111605
 C          1.9982602774        0.8854946342        0.1202662264
 C          1.5567256611        1.8366536665       -0.8319040952
 C          0.5334771322        2.7845803483       -0.3708620049
 C          0.1106013850        2.7271263525        0.9049105771
 C         -0.9526014321        3.6025463461        1.5008191210
 C         -2.3416327747        2.9595851035        1.3896478858
 C         -2.6890633185        2.4631431195       -0.0138640069
 H         -2.0532290488        1.6135278825       -0.2729542103
 H         -3.7144429560        2.0865291920        0.0182077008
 C         -2.5690070355        3.5231105912       -1.1175008010
 H         -3.4403290239        3.4440599723       -1.7710065290
 H         -2.5778982227        4.5231032677       -0.6810273418
 C         -1.3336699871        3.3625869895       -2.0064201289
 H         -1.2600052156        2.3214682171       -2.3341093050
 H         -1.4722483544        3.9787554929       -2.8994165230
 C          0.0023754404        3.7711569128       -1.3710508456
 H          0.7492211337        3.8209207383       -2.1691558514
 H         -0.0899641035        4.7643141151       -0.9252897253
 H         -3.0844050826        3.6933245404        1.7083265265
 H         -2.3885878313        2.1069876776        2.0710382518
 H         -0.7180062987        3.7542286978        2.5558773369
 H         -0.9457383761        4.5662160029        0.9952532899
 O          0.5908648907        1.8308454066        1.8031237652
 C          1.5110069815        0.8603177387        1.4265029709
 O          1.8056824637        0.0607431976        2.3344333658
 H          0.6950920696       -0.7655871024       -1.5554794227
 C          1.0403128301       -1.6135829793       -0.9814731054
 C          2.2389400244       -1.5237784607       -0.2824115297
 C          2.6784811089       -2.6330475618        0.4271383563
 C          1.9179234620       -3.7899058479        0.4530180592
 C          0.7052297127       -3.8592513424       -0.2076927473
 C          0.2608113677       -2.7579195115       -0.9320344781
 N         -0.9643650110       -2.7946218151       -1.6233038520
 S         -2.0696012194       -1.5492057286       -1.4660442659
 O         -3.2534283199       -2.0311997442       -2.1429333971
 O         -1.5065684262       -0.3201418398       -1.9598118936
 C         -2.3950079168       -1.4274555695        0.2820794580
 C         -3.5430978762       -1.9926942339        0.8016030778
 C         -3.7634920778       -1.9250735215        2.1679659083
 C         -2.8318988715       -1.3083167667        2.9901470973
 C         -1.6812602462       -0.7504779144        2.4543222373
 C         -1.4620385753       -0.8076569728        1.0876826928
 H         -0.5760711275       -0.3795954357        0.6459072388
 H         -0.9403224499       -0.2761084256        3.0797105391
 H         -3.0007470493       -1.2601189091        4.0544014282
 H         -4.6579406879       -2.3555064073        2.5886829808
 H         -4.2400061597       -2.4605179889        0.1252147058
 H         -1.4410966036       -3.6835516346       -1.5681909101
 H          0.1062453684       -4.7563746805       -0.1686626912
 H          2.2682363957       -4.6453155326        1.0102192568
 H          3.6099166337       -2.5897491986        0.9666829817
 C          2.9655843469       -0.2003026058       -0.3219333309
 H          3.1995199363        0.0290977767       -1.3721698974
 C          4.2457533041       -0.1719947827        0.4830926751
 C          5.5069478761       -0.7348329600       -0.0988593557
 C          5.3497911425        0.7470426620        0.0573586133
 H          5.9235896728        1.2509702387        0.8205065157
 H          5.1869347138        1.3422940669       -0.8295165060
 H          6.1939356174       -1.2480265097        0.5567549226
 H          5.4565844574       -1.1468192781       -1.0954815606
 H          4.0753707788       -0.2864516623        1.5470996115
 O          2.0007782001        1.8886914859       -2.0110055214
