  62
        -98.94593050
 C          1.5777534833        1.5521961390       -0.2698220646
 C          1.4558783117        0.1810584824       -0.6019516882
 C          2.7199629053       -0.5585106103       -0.7303964722
 C          3.8846627906        0.0874343604       -0.5406374364
 C          5.2373977241       -0.5618244001       -0.5731825701
 C          5.6524524152       -1.0466512949        0.8233653087
 C          4.5762229761       -1.8604154532        1.5426510188
 H          4.9924470780       -2.1687908602        2.5042935632
 H          3.7220090787       -1.2134690163        1.7553947965
 C          4.0942400453       -3.0983883685        0.7734409248
 H          4.8190044812       -3.3583998181        0.0010141150
 H          4.0424679185       -3.9413017992        1.4657681338
 C          2.7087714664       -2.9535671635        0.1406558105
 H          1.9957360377       -2.6022917758        0.8906061092
 H          2.3814824668       -3.9437534110       -0.1863493671
 C          2.6271907156       -2.0186751345       -1.0720447826
 H          3.3902085085       -2.2938893151       -1.8028258834
 H          1.6421999044       -2.1520928923       -1.5280842153
 H          6.5596029127       -1.6458311334        0.7250814866
 H          5.8877557578       -0.1735631929        1.4366356468
 H          5.2164191352       -1.3988428053       -1.2683089048
 H          5.9646536030        0.1721845060       -0.9242437001
 O          3.9602388542        1.4101688172       -0.2401074739
 C          2.8126346975        2.1713591452       -0.0834305249
 O          3.0213471300        3.3640541254        0.2194369201
 O          0.3538291851       -0.3965497470       -0.7790409832
 C          0.3229516025        2.3881572378       -0.0873827435
 C         -0.5292045657        1.7522871762        0.9832986369
 C          0.0137883856        1.5952477105        2.2569232468
 C         -0.7090792444        0.9865330160        3.2636437492
 C         -1.9850836061        0.5086157144        3.0184925221
 C         -2.5369878555        0.6649905822        1.7533214041
 C         -1.8144096330        1.2935970017        0.7474432823
 H         -2.2727717546        1.4091840392       -0.2194751740
 N         -3.8322676434        0.2051132911        1.4806707241
 S         -4.2395550305       -0.3938062324       -0.0223314104
 O         -4.3866671002        0.6863301839       -0.9662311942
 O         -5.4394740939       -1.1673133664        0.2271467647
 C         -2.9339878772       -1.4961034964       -0.5325456630
 C         -2.4751392096       -1.4364376988       -1.8308765409
 C         -1.5152151193       -2.3436265081       -2.2463640986
 C         -1.0286872780       -3.2871548381       -1.3574558102
 C         -1.4927544461       -3.3289108614       -0.0527859957
 C         -2.4588399958       -2.4299110789        0.3654400495
 H         -2.8411312517       -2.4469505558        1.3734734132
 H         -1.1009928075       -4.0568394445        0.6399026667
 H         -0.2773321395       -3.9907821499       -1.6812693619
 H         -1.1427674338       -2.3031250410       -3.2578798848
 H         -2.8707731352       -0.6778108443       -2.4878195947
 H         -4.2706991385       -0.3164500911        2.2249164707
 H         -2.5495469120        0.0234235068        3.8001653201
 H         -0.2745204296        0.8733596170        4.2455128339
 H          1.0170365656        1.9559503341        2.4418432373
 H          0.6559362254        3.3723801880        0.2718867682
 C         -0.3926837069        2.5656388450       -1.4092314411
 C         -1.3235913799        3.7226134952       -1.6072128581
 C         -0.0001566345        3.6956749817       -2.3102659354
 H          0.0156557543        3.5241259989       -3.3761420598
 H          0.7780630403        4.3603389604       -1.9637452375
 H         -2.2222858119        3.5677481758       -2.1854651860
 H         -1.4462965870        4.4103859571       -0.7840257633
 H         -0.6484825130        1.6217543225       -1.8773245108
