  62
        -98.94451729
 C         -2.5982850081       -1.0721551379        0.2010148955
 C         -2.5563152195       -0.1624045270       -0.8833075771
 C         -3.1344465683        1.1662841851       -0.6322445159
 C         -3.6868316311        1.4385025653        0.5629195790
 C         -4.2604578247        2.7650348540        0.9659441232
 C         -3.2029392630        3.6446874483        1.6470261434
 C         -1.8834406393        3.7397191001        0.8798708090
 H         -1.3903658477        2.7639900448        0.8777677241
 H         -1.2328123532        4.4192875113        1.4349336776
 C         -2.0207730144        4.2363798257       -0.5659792179
 H         -1.2342330008        4.9691904368       -0.7581657511
 H         -2.9781343771        4.7429196697       -0.6963145931
 C         -1.8749160330        3.1440679722       -1.6274142547
 H         -0.9639752409        2.5691377986       -1.4327476143
 H         -1.7508589445        3.6292713615       -2.5997650899
 C         -3.0556370504        2.1710212620       -1.7467132782
 H         -2.9199065186        1.5931839439       -2.6656234160
 H         -3.9878914064        2.7333166964       -1.8292425444
 H         -2.9922328877        3.2307595914        2.6356699262
 H         -3.6197297690        4.6449484960        1.7782230193
 H         -4.6539186591        3.2678552378        0.0848162948
 H         -5.0770190910        2.5866674337        1.6676186117
 O         -3.7462575820        0.5292550238        1.5679762738
 C         -3.1824090288       -0.7251927643        1.4243376661
 O         -3.2745889499       -1.4435491818        2.4395535757
 H         -0.1664693650       -1.3746001657       -1.5445149138
 C          0.2964738835       -1.7155846018       -0.6304523977
 C         -0.4824656004       -2.3237820051        0.3439083838
 C          0.1295923607       -2.7244767470        1.5259828548
 C          1.4828626960       -2.5138975920        1.7266086915
 C          2.2487880761       -1.8820020829        0.7624624822
 C          1.6432944003       -1.4731406412       -0.4176936251
 N          2.4031838798       -0.7625370266       -1.3791386916
 S          2.7576073039        0.8134311338       -0.8889447163
 O          1.7434704379        1.3294663768        0.0033456788
 O          2.9883361753        1.5625063215       -2.1051747816
 C          4.2994585613        0.6212122851       -0.0202606888
 C          5.3990791728        0.1954666093       -0.7399273649
 C          6.6053327747        0.0243065484       -0.0799986710
 C          6.6908930119        0.2813153199        1.2804948851
 C          5.5783090888        0.7103866974        1.9880035870
 C          4.3681810301        0.8828975631        1.3336866239
 H          3.4748636357        1.2084976513        1.8425488264
 H          5.6466247755        0.9091055396        3.0455092803
 H          7.6302674610        0.1463565571        1.7929996675
 H          7.4727601886       -0.3089882344       -0.6265340867
 H          5.2872345454        0.0128128483       -1.7955852112
 H          1.9318154751       -0.7161934996       -2.2734179664
 H          3.2992496570       -1.6971349179        0.9191525666
 H          1.9431657938       -2.8326343989        2.6493634996
 H         -0.4711675772       -3.1810130328        2.2994541426
 C         -1.9739197085       -2.4611499259        0.1532369327
 H         -2.3776163025       -2.9980355427        1.0216964597
 C         -2.3259703808       -3.2404586408       -1.0974288196
 C         -2.1977199770       -4.7329819791       -1.0790803072
 C         -3.5546054840       -4.0971873746       -1.1004447444
 H         -4.1397923595       -4.1536344975       -2.0059510810
 H         -4.1461002237       -4.1244693626       -0.1967327191
 H         -1.8700615574       -5.1947060205       -0.1599890139
 H         -1.8489440539       -5.2303793861       -1.9709513840
 H         -2.0828325437       -2.7232578143       -2.0157762805
 O         -2.0689307795       -0.4199802311       -2.0180873747
