  62
        -98.94951950
 C         -1.6018960621       -0.8551644592       -0.7091446105
 C         -1.4474939888       -1.6512540664        0.4510144068
 C         -0.4235461441       -2.7039001837        0.3740496142
 C          0.3175153433       -2.8240344086       -0.7418481602
 C          1.3896632005       -3.8532821330       -0.9575058763
 C          2.7759927807       -3.3500169662       -0.5348458261
 C          2.8173745872       -2.7275078678        0.8608935892
 H          3.8573500831       -2.4628280741        1.0686049611
 H          2.2490627777       -1.7944313815        0.8713680737
 C          2.2880740703       -3.6333686708        1.9807664078
 H          2.9673716944       -3.5638830140        2.8330680860
 H          2.2830558746       -4.6738187179        1.6519806390
 C          0.8967077453       -3.2485658229        2.4882118019
 H          0.7277268451       -3.7560229521        3.4422026527
 H          0.8674596727       -2.1715447528        2.6765060365
 C         -0.2732009731       -3.6090883674        1.5634381328
 H         -0.1855882299       -4.6517077309        1.2481923980
 H         -1.1973533621       -3.5000124340        2.1389223180
 H          3.1121474011       -2.6001166485       -1.2550138474
 H          3.4710225225       -4.1912943341       -0.5760350210
 H          1.1344475122       -4.7495747828       -0.3949208745
 H          1.4138862057       -4.0993329691       -2.0209238603
 O          0.1787303193       -2.0026620658       -1.8148449360
 C         -0.7758859065       -0.9969160489       -1.8227278559
 O         -0.7905753816       -0.3101738903       -2.8642472328
 H         -0.2697315849        1.2983179229       -0.2468798158
 C         -1.0019043080        1.6812739395        0.4490432333
 C         -2.3205063019        1.2584289777        0.3412862045
 C         -3.2573868724        1.7746863961        1.2261482998
 C         -2.8670175656        2.6644545574        2.2128180358
 C         -1.5435483916        3.0414921200        2.3483902454
 C         -0.6009913620        2.5401208001        1.4574168653
 N          0.7533828570        2.8956156649        1.5451606682
 S          1.9171743262        1.7504199352        1.1696950994
 O          1.4949818244        0.4157065346        1.5210576411
 O          3.1145381190        2.2294064755        1.8302696187
 C          2.1378542814        1.9052336321       -0.5890962924
 C          2.2447384639        3.1696659993       -1.1336054377
 C          2.4337272187        3.2938713956       -2.5003880740
 C          2.5143470155        2.1598098925       -3.2946771261
 C          2.4131367298        0.8974344124       -2.7319974225
 C          2.2255369943        0.7680461234       -1.3656634943
 H          2.1243700727       -0.1965228438       -0.8930401454
 H          2.4601385636        0.0136710189       -3.3479625759
 H          2.6532294354        2.2573329824       -4.3598108534
 H          2.5124351611        4.2733924287       -2.9440169917
 H          2.1731421487        4.0268090933       -0.4851075110
 H          1.0030397035        3.4411152452        2.3572391048
 H         -1.2379549854        3.7123186697        3.1368607648
 H         -3.6025169308        3.0554027655        2.8995713309
 H         -4.2889993646        1.4717537798        1.1534210966
 C         -2.6395320223        0.2542493285       -0.7395150816
 H         -2.5227396186        0.7523765951       -1.7134038456
 C         -4.0377502470       -0.3184569730       -0.6462621180
 C         -5.1922391586        0.4051765909       -1.2699065199
 C         -4.6804992666       -0.8611910095       -1.8860096749
 H         -5.2802052672       -1.7554193990       -1.8067238278
 H         -4.1173194642       -0.7937120318       -2.8055866746
 H         -6.1483556143        0.3790800408       -0.7692777863
 H         -4.9842701117        1.3344599974       -1.7781807483
 H         -4.2066380530       -0.8545744255        0.2803995262
 O         -2.1454942257       -1.5099878604        1.4894042695
