  62
        -98.94279536
 C         -1.8137450513       -0.8769666020        0.2518282633
 C         -3.1635435039       -1.2238209101        0.5156431821
 C         -4.0980861619       -0.1052672214        0.6965669693
 C         -3.6289521999        1.1548454473        0.6553817699
 C         -4.4753874993        2.3891101383        0.7642451445
 C         -4.9379407114        2.8678078047       -0.6191716565
 C         -5.5430740073        1.7631325877       -1.4856178738
 H         -5.8598388897        2.2227328839       -2.4243961313
 H         -4.7655275520        1.0362356346       -1.7321987815
 C         -6.7332627864        1.0340963392       -0.8463792327
 H         -7.5221301635        0.9292526490       -1.5942062888
 H         -7.1389110659        1.6323658815       -0.0297192820
 C         -6.4157021952       -0.3721516403       -0.3342170150
 H         -5.9251120558       -0.9477494058       -1.1236243436
 H         -7.3605197526       -0.8723951527       -0.1056228032
 C         -5.5445228707       -0.4412661233        0.9263832861
 H         -5.9707488050        0.1970318624        1.7029849139
 H         -5.5586894253       -1.4750225909        1.2843122192
 H         -5.6697985756        3.6657717220       -0.4814533643
 H         -4.0771701152        3.2835795671       -1.1480710060
 H         -5.3374928743        2.1777098360        1.3938784808
 H         -3.8796784363        3.1754296112        1.2307101827
 O         -2.3187753327        1.4480081154        0.4641482401
 C         -1.3777488922        0.4480905063        0.2502325881
 O         -0.2208389457        0.8756802738        0.0875471083
 H          1.7966341738       -1.7392554787       -0.8355498283
 C          1.6837463434       -1.6949644996        0.2342127053
 C          0.4318387087       -1.7916706598        0.8204177993
 C          0.3357021453       -1.7052453887        2.2076940384
 C          1.4612623569       -1.5142287466        2.9839267556
 C          2.7093733092       -1.4109889060        2.3942005605
 C          2.8189398534       -1.5025962997        1.0122980829
 N          4.0820350663       -1.4533672896        0.3978225824
 S          4.4166512717       -0.4792208749       -0.9185080323
 O          3.5068339195       -0.7694288110       -1.9955796053
 O          5.8189488386       -0.7139067052       -1.1885375977
 C          4.2091083691        1.1941595548       -0.3352851909
 C          5.3392144297        1.9509665437       -0.0894065113
 C          5.1938627978        3.2379444597        0.4012935895
 C          3.9251100496        3.7422929622        0.6457273067
 C          2.8029786059        2.9671145273        0.3990651808
 C          2.9389409410        1.6791985617       -0.0970465480
 H          2.0699144816        1.0700232393       -0.2880889831
 H          1.8105538545        3.3444247501        0.5886221049
 H          3.8091574478        4.7435827850        1.0300936262
 H          6.0664461311        3.8415808033        0.5929590315
 H          6.3044740149        1.5174454216       -0.2957906740
 H          4.8517523480       -1.4067640918        1.0504241917
 H          3.5914331105       -1.2645146308        2.9991244038
 H          1.3689901589       -1.4439417098        4.0573176784
 H         -0.6400549585       -1.7848004207        2.6680947137
 C         -0.8295278384       -2.0088953926        0.0227223989
 H         -1.3365255942       -2.8986832182        0.4339324292
 C         -0.5617790899       -2.3042991654       -1.4455762844
 C         -1.5888269880       -2.0199390089       -2.4992746198
 C         -0.3242708199       -1.2186537502       -2.4501604002
 H          0.4271688266       -1.3783424941       -3.2100201041
 H         -0.3739388427       -0.1980171407       -2.1044000019
 H         -2.5070502980       -1.5424973675       -2.1886989297
 H         -1.7175608429       -2.7360384229       -3.2969293351
 H          0.0140120656       -3.2160183712       -1.5762322065
 O         -3.5657363595       -2.4148603081        0.6006822865
