  62
        -98.94779362
 C         -1.0601451831       -1.2147327124        0.0088335984
 C         -1.5619508689       -0.2433308976        0.9064736703
 C         -2.4481750242        0.7702160819        0.3246338112
 C         -2.7178113534        0.7433666350       -0.9932702828
 C         -3.5701325224        1.7330663983       -1.7406748200
 C         -5.0757495245        1.4417455800       -1.6752955592
 C         -5.7360661974        1.7267327325       -0.3256742453
 H         -5.4896062725        2.7411415865       -0.0103871991
 H         -6.8156837771        1.6876007805       -0.4834270619
 C         -5.3622151579        0.7340114740        0.7838033849
 H         -6.2650778746        0.4254564761        1.3154040768
 H         -4.9302920378       -0.1643719628        0.3368749260
 C         -4.3887606502        1.2852610699        1.8252803606
 H         -4.8603041168        2.1066246074        2.3691982196
 H         -4.1664766858        0.4897252141        2.5407466853
 C         -3.0590778244        1.7843235424        1.2445847591
 H         -3.2049925956        2.7309423854        0.7238184053
 H         -2.3630859743        1.9452044514        2.0717876714
 H         -5.2402924177        0.3970520427       -1.9493043571
 H         -5.5598065633        2.0637849999       -2.4318146016
 H         -3.3734869834        2.7389727395       -1.3674409785
 H         -3.2522109096        1.6868522872       -2.7848185126
 O         -2.2153201302       -0.2067773656       -1.8252259171
 C         -1.3745077869       -1.2043693982       -1.3505511555
 O         -0.9861877358       -2.0047218449       -2.2230903849
 H          0.9955404289       -0.0725302944       -0.5919085319
 C          1.6759102752       -0.9086817658       -0.6067597394
 C          1.2648293055       -2.1357598441       -0.1076052556
 C          2.1519193154       -3.2049884199       -0.1743529474
 C          3.4053218508       -3.0414719509       -0.7372528008
 C          3.8090656059       -1.8148071253       -1.2332315879
 C          2.9301618916       -0.7394303163       -1.1715451205
 N          3.2886604519        0.5147322780       -1.6784089666
 S          2.5754772872        1.9223886185       -1.1472785425
 O          1.2204121404        2.0256367356       -1.6309615069
 O          3.4835185662        2.9586904444       -1.5925721100
 C          2.5994761069        1.8291024852        0.6335233768
 C          1.4150702809        1.8187233837        1.3400256817
 C          1.4549589592        1.7018072332        2.7199701936
 C          2.6767948332        1.6079460748        3.3673885568
 C          3.8608533563        1.6368040863        2.6456092026
 C          3.8250355904        1.7439089844        1.2651886774
 H          4.7247218293        1.7728598232        0.6726236234
 H          4.8089644051        1.5691114735        3.1542327407
 H          2.7039394450        1.5120705984        4.4413430795
 H          0.5284736217        1.6593087558        3.2701554033
 H          0.4795943083        1.8875251531        0.8057201651
 H          4.2540582635        0.6291026000       -1.9451172837
 H          4.7855633214       -1.6904260760       -1.6748050921
 H          4.0808818848       -3.8816770063       -0.7881265240
 H          1.8562953066       -4.1681214084        0.2086870980
 C         -0.0986193336       -2.2617183329        0.5321394085
 H          0.0147362058       -2.0403992786        1.6052383301
 C         -0.6850177862       -3.6527972175        0.3842338515
 C         -0.4566504988       -4.6970943075        1.4349471798
 C         -1.8061283712       -4.0629059483        1.2906116564
 H         -2.6152513003       -4.6474523167        0.8791634919
 H         -2.1197572749       -3.3512239577        2.0405725872
 H         -0.3395687136       -5.7239291438        1.1225101549
 H          0.1359314629       -4.4240386289        2.2950409737
 H         -0.7394535978       -3.9699396233       -0.6511285061
 O         -1.2738469439       -0.2169098333        2.1333505440
