  62
        -98.94433858
 C         -1.9537906891       -0.8874573686        0.1152131265
 C         -2.3842370922        0.4596663489        0.1768171220
 C         -3.7980236795        0.6622065607        0.5283122200
 C         -4.5754346586       -0.4057060309        0.7840962749
 C         -6.0433099655       -0.3448033293        1.0905403740
 C         -6.8820208897       -0.4553465677       -0.1905987023
 C         -6.4324977453        0.4871169992       -1.3071362388
 H         -5.4368749478        0.1908065649       -1.6453523637
 H         -7.1135118344        0.3426671254       -2.1486788127
 C         -6.4120879046        1.9712228222       -0.9153529352
 H         -6.8676719467        2.5523398339       -1.7199318720
 H         -7.0165938178        2.1270460074       -0.0211164651
 C         -5.0135032773        2.5477354402       -0.6870483275
 H         -4.3760512360        2.3151053357       -1.5440137978
 H         -5.0989814771        3.6362968663       -0.6303592708
 C         -4.2981729369        2.0780762765        0.5860243810
 H         -3.4097619913        2.7030670475        0.7177581507
 H         -4.9507769112        2.2225694732        1.4494588177
 H         -6.8145205655       -1.4808060459       -0.5610356249
 H         -7.9246381874       -0.2527371134        0.0608699540
 H         -6.2923813949       -1.1779949959        1.7497442461
 H         -6.2639975923        0.5897488700        1.6025076813
 O         -4.1167096794       -1.6827524401        0.7441411238
 C         -2.8026968937       -1.9564477134        0.4028757244
 O         -2.5137969772       -3.1701267121        0.3973110467
 O         -1.6335155128        1.4440855508       -0.0507156255
 C         -0.5206592075       -1.2131966245       -0.2708837671
 C          0.4271378313       -0.5462007158        0.6952545766
 C          0.3148000084       -0.8561049886        2.0491520527
 C          1.1357408209       -0.2547524129        2.9820709355
 C          2.0933513687        0.6624609645        2.5841955130
 C          2.2157446227        0.9777601255        1.2367456871
 C          1.3903253333        0.3673470447        0.3001078073
 H          1.4938889759        0.6483242861       -0.7337182908
 N          3.1603808294        1.9261119703        0.8159481560
 S          4.0920504921        1.6947341456       -0.5496478002
 O          5.1265779521        2.7004700864       -0.4515960260
 O          3.2751883354        1.7319095627       -1.7348890881
 C          4.8062912040        0.0747522391       -0.3353384622
 C          4.1862476124       -1.0260000328       -0.8905367803
 C          4.7245784547       -2.2826167208       -0.6612588193
 C          5.8653476182       -2.4163915830        0.1147851996
 C          6.4784144115       -1.2997720813        0.6630816208
 C          5.9432240879       -0.0416756336        0.4409573725
 H          6.3946647982        0.8529355832        0.8382241724
 H          7.3683907791       -1.4065662136        1.2621000726
 H          6.2801513303       -3.3965341216        0.2898064811
 H          4.2502167080       -3.1513387907       -1.0893551941
 H          3.3043130847       -0.8841682292       -1.4926111823
 H          3.7097759254        2.3283229188        1.5609408271
 H          2.7298033997        1.1417170423        3.3124986258
 H          1.0320228647       -0.5008618617        4.0281181921
 H         -0.4380982497       -1.5690641210        2.3577540646
 H         -0.4181718803       -2.3017701997       -0.1543142150
 C         -0.2775674886       -0.8559029933       -1.7217183779
 C          0.7483580182       -1.6034222440       -2.5172751552
 C         -0.7106255037       -1.8170247991       -2.7861283095
 H         -1.1330085034       -1.4213379497       -3.6976457505
 H         -1.1605702991       -2.7446711763       -2.4627157054
 H          1.3313528125       -1.0597501423       -3.2463121453
 H          1.2846791170       -2.3960526349       -2.0173320691
 H         -0.4108103578        0.2006852199       -1.9252932474
