  62
        -98.94415350
 C          2.2001498998        0.7819070771       -0.0633548657
 C          2.9147201446        0.1367003444        0.9732181863
 C          3.6848248675       -1.0479480605        0.5778249445
 C          3.6414859359       -1.4764622041       -0.6971680839
 C          4.3458190127       -2.6866287206       -1.2482514770
 C          5.8071019073       -2.4328493967       -1.6430424414
 C          6.7768870532       -2.2634678387       -0.4729441704
 H          6.6656646697       -3.1027450107        0.2143799354
 H          7.7869491804       -2.3114397229       -0.8845648347
 C          6.6192385061       -0.9429963166        0.2938443168
 H          7.6033154629       -0.5001572835        0.4628626949
 H          6.0497105856       -0.2349610729       -0.3125653733
 C          5.9445230959       -1.0788411295        1.6588923518
 H          5.8516539719       -0.0813124984        2.0960379177
 H          6.5729163569       -1.6787572177        2.3209345388
 C          4.5456288257       -1.7075454365        1.6126915665
 H          4.0698564944       -1.5583512429        2.5853948369
 H          4.6203104322       -2.7779512095        1.4212812226
 H          5.8474306257       -1.5471631276       -2.2811499869
 H          6.1361447206       -3.2872585476       -2.2388898361
 H          4.2995187977       -3.4998579445       -0.5232588778
 H          3.7945039900       -2.9854949797       -2.1423711398
 O          2.9088853423       -0.8507604849       -1.6563568584
 C          2.1857276806        0.2995564935       -1.3724737596
 O          1.5807159133        0.7789098551       -2.3488021386
 O          2.9004171930        0.5253529970        2.1733285652
 C          1.3949436107        2.0262778604        0.2602439651
 C         -0.0658936190        1.8068946933       -0.0501709284
 C         -0.8578582696        2.7469004630       -0.6959903058
 C         -2.1958737504        2.4877947527       -0.9394222621
 C         -2.7728219294        1.2949865180       -0.5457794572
 C         -1.9944443088        0.3534564007        0.1153378182
 C         -0.6566680019        0.6187876361        0.3631625764
 H         -0.0523273197       -0.1161967529        0.8818286496
 N         -2.5673728879       -0.8674905393        0.5119526341
 S         -4.0067173694       -0.8313825204        1.3759901820
 O         -4.1335895099        0.3873011064        2.1411273281
 O         -4.0265544606       -2.0675133670        2.1275182135
 C         -5.2644678210       -0.8982371182        0.1177704382
 C         -6.2362771598        0.0814669124        0.0611828686
 C         -7.2108290214        0.0023260528       -0.9215776727
 C         -7.1968286383       -1.0498738356       -1.8242521674
 C         -6.2151682701       -2.0271562628       -1.7521886154
 C         -5.2386715119       -1.9543917491       -0.7718000126
 H         -4.4610460384       -2.6942913561       -0.6797238747
 H         -6.2071557523       -2.8437291722       -2.4561135646
 H         -7.9553518622       -1.1092619125       -2.5887136892
 H         -7.9749893757        0.7606803068       -0.9791969718
 H         -6.2043040492        0.8832028043        0.7816241744
 H         -1.9111339802       -1.5036061718        0.9409469613
 H         -3.8119493765        1.0869859817       -0.7413762022
 H         -2.7971600219        3.2250789111       -1.4489974163
 H         -0.4269913075        3.6820319143       -1.0136342191
 H          1.4920128337        2.1622306823        1.3484814854
 C          1.9887917554        3.2338562303       -0.4347657865
 C          1.8803489484        4.5943441760        0.1843549999
 C          3.1999119424        3.8850420169        0.1606466637
 H          3.9709185316        4.2464604939       -0.5031587703
 H          3.5783955033        3.4745722874        1.0856829543
 H          1.7476682053        5.4472076263       -0.4640650129
 H          1.3656713390        4.6739644852        1.1300534617
 H          1.9434265192        3.1545090632       -1.5151143365
