  62
        -98.93903301
 C          2.4713062751        0.9922671535        0.3685121561
 C          2.7774277402       -0.1805336671        1.1096094271
 C          4.1278116717       -0.7264653156        0.9430270015
 C          5.0048622221       -0.0954223578        0.1418641108
 C          6.4306579595       -0.5038862028       -0.1110606235
 C          6.5896716137       -1.5781729642       -1.1955595992
 C          6.1396403716       -2.9822948647       -0.7903999539
 H          6.5068531771       -3.6695188062       -1.5551254067
 H          6.6158404675       -3.2579348843        0.1509941093
 C          4.6184112925       -3.1487342983       -0.6680092963
 H          4.1179194285       -2.3224019974       -1.1783290337
 H          4.3104600379       -4.0679373861       -1.1714042385
 C          4.1015421448       -3.2256888598        0.7687671023
 H          3.0115519699       -3.3042587083        0.7372007914
 H          4.4902062173       -4.1254473250        1.2510115229
 C          4.4627238682       -2.0126126169        1.6360129474
 H          3.8717975722       -2.0587703127        2.5541473369
 H          5.5202588599       -2.0388686124        1.8983436629
 H          6.0390432825       -1.2614186888       -2.0842197858
 H          7.6491443579       -1.6210538092       -1.4581336927
 H          6.9576003749        0.3953751234       -0.4369618600
 H          6.8809680404       -0.8535896881        0.8183253015
 O          4.6842940692        1.0368658654       -0.5339908488
 C          3.4157561481        1.5963940626       -0.4622885576
 O          3.2883722799        2.6115966375       -1.1750430803
 O          1.9580216467       -0.7404567094        1.8875254310
 C          1.0707554372        1.5521926749        0.5392794217
 C          0.1409020951        1.1490723638       -0.5808994799
 C          0.3953597767        1.4960024591       -1.9038572182
 C         -0.5011127283        1.1546002878       -2.8998274128
 C         -1.6743525328        0.4861918963       -2.5968162722
 C         -1.9349300540        0.1307332428       -1.2788011086
 C         -1.0219365581        0.4534612373       -0.2844475337
 H         -1.2332348321        0.1594942873        0.7335802729
 N         -3.1078475274       -0.5605448278       -0.9371592566
 S         -3.8358950308       -0.2020044053        0.5445533706
 O         -3.8004269352        1.2234022082        0.7806149981
 O         -3.2471571389       -1.0327825513        1.5649261121
 C         -5.5072470845       -0.7342456309        0.2238545363
 C         -5.8125933500       -2.0772253231        0.3408159212
 C         -7.1035023810       -2.4968310672        0.0615145866
 C         -8.0614883963       -1.5725971256       -0.3286231526
 C         -7.7404489535       -0.2280712135       -0.4398718181
 C         -6.4510045285        0.1984541581       -0.1631223625
 H         -6.1575232019        1.2339285434       -0.2274206532
 H         -8.4882170417        0.4882646614       -0.7398186971
 H         -9.0655780631       -1.9020113030       -0.5443168402
 H         -7.3576530411       -3.5407669186        0.1499083078
 H         -5.0374755791       -2.7564692530        0.6557895816
 H         -3.7800113925       -0.5952031703       -1.6913359058
 H         -2.3800995972        0.2362824452       -3.3745064187
 H         -0.2911316810        1.4271134199       -3.9232442046
 H          1.3000260189        2.0346877124       -2.1401509668
 H          0.6882827751        1.0886552579        1.4597855872
 C          1.0283881153        3.0594426487        0.7132697734
 C         -0.2190681869        3.6837290605        1.2606446324
 C          1.0273124007        3.6434321214        2.0921680089
 H          1.5645278990        4.5645067293        2.2617084531
 H          1.0614525298        2.9572937483        2.9261868833
 H         -0.5370182395        4.6333774681        0.8582037794
 H         -1.0358000566        3.0264368799        1.5237181654
 H          1.5640920217        3.5961826164       -0.0587540117
