  62
        -98.93887811
 C          1.8588354572       -0.8939777987        0.1189997628
 C          2.4535861025       -0.1877145746       -0.9495882903
 C          3.5530875983        0.7369294552       -0.6117073953
 C          3.8990284441        0.8833393950        0.6811426925
 C          5.0013330271        1.7310357366        1.2579731830
 C          6.3937226465        1.1119585868        1.0520765785
 C          6.6410695610        0.5306077279       -0.3376389728
 H          7.6090963018        0.0231509671       -0.3172488938
 H          5.8836008650       -0.2262348686       -0.5494118535
 C          6.6728570302        1.5498258909       -1.4740054439
 H          7.4639739272        2.2776735328       -1.2801924991
 H          6.9353871009        1.0098150623       -2.3873579660
 C          5.3688849435        2.3081721170       -1.7290971355
 H          5.4690562351        2.8118684376       -2.6951364395
 H          5.2191737008        3.0897104621       -0.9889718941
 C          4.1271274684        1.4273446682       -1.8258323225
 H          4.3054142525        0.6376571339       -2.5646209435
 H          3.3072819205        2.0275912152       -2.2395662990
 H          6.5125231544        0.3025545359        1.7764937384
 H          7.1450368158        1.8726769009        1.2705516440
 H          4.9567906381        2.7340185451        0.8436695735
 H          4.8096046183        1.8064967623        2.3306594959
 O          3.2727082153        0.2045419627        1.6846631665
 C          2.2474982612       -0.6917373481        1.4427869257
 O          1.7760565502       -1.2265783780        2.4634996418
 O          2.0831267844       -0.3186710327       -2.1489242308
 C          0.7344966299       -1.8695747817       -0.1761583585
 C         -0.5373946096       -1.4126885354        0.4953311677
 C         -1.3584930656       -2.2517723525        1.2362083637
 C         -2.5086169063       -1.7612773860        1.8316460117
 C         -2.8702330511       -0.4344935098        1.6942335683
 C         -2.0666930251        0.4090550589        0.9363938437
 C         -0.9180114575       -0.0848999026        0.3386890932
 H         -0.2925491791        0.5753055387       -0.2496089604
 N         -2.4324470999        1.7555325574        0.7738458224
 S         -4.0361192736        2.1027754142        0.4469863290
 O         -4.0107919470        3.3490414340       -0.2864119002
 O         -4.7915247282        2.1124985035        1.6749728618
 C         -4.6022225708        0.7715225860       -0.5976386254
 C         -3.9458118106        0.5586320222       -1.7937567305
 C         -4.3507791320       -0.4901763443       -2.6029678739
 C         -5.4005867234       -1.3038948865       -2.2046512891
 C         -6.0533726497       -1.0733221423       -1.0039230324
 C         -5.6507040090       -0.0271801805       -0.1891645425
 H         -6.1269843394        0.1854019365        0.7540318037
 H         -6.8704091452       -1.7063620458       -0.6977585719
 H         -5.7104295934       -2.1218298225       -2.8356802943
 H         -3.8433358597       -0.6700756957       -3.5372049426
 H         -3.1355546251        1.2110189526       -2.0783826054
 H         -1.8110433439        2.2829562777        0.1791774475
 H         -3.7511104500       -0.0342758552        2.1692869183
 H         -3.1299632418       -2.4220400141        2.4163252652
 H         -1.0932268347       -3.2886381713        1.3587991847
 H          0.5821858135       -1.8160354607       -1.2646194132
 C          1.1452252882       -3.2800737563        0.1893203482
 C          0.5646997698       -4.4501051761       -0.5456287485
 C          1.9927436455       -4.0571908260       -0.7716415520
 H          2.7736710255       -4.6891666979       -0.3760372036
 H          2.2516780029       -3.5774538138       -1.7043934430
 H          0.3658273925       -5.3575066633        0.0042408643
 H         -0.1465633120       -4.2439007710       -1.3308003290
 H          1.3593779885       -3.3902804223        1.2464026526
