  62
        -98.94172737
 C         -1.7004462481       -0.5012558840       -0.2379106130
 C         -2.8297651314       -1.2954635617        0.0916613770
 C         -4.1367619156       -0.7649874908       -0.3100708901
 C         -4.2076106410        0.4183810718       -0.9452788398
 C         -5.4617125586        1.0805862854       -1.4481535085
 C         -6.2109019607        1.8911201139       -0.3817156857
 C         -6.9381867901        1.0589322558        0.6751666265
 H         -7.5931543963        1.7391817058        1.2232274403
 H         -7.5735463570        0.3226354484        0.1818798278
 C         -6.0100368983        0.3546396361        1.6746870156
 H         -5.0183992911        0.8114703907        1.6342570267
 H         -6.3885551389        0.5017047673        2.6887337594
 C         -5.8705230902       -1.1521000976        1.4572438692
 H         -5.1657749651       -1.5413074881        2.1963005482
 H         -6.8349268094       -1.6370251224        1.6236733873
 C         -5.3606501443       -1.5452880215        0.0645305739
 H         -6.1452931745       -1.4010490887       -0.6779981378
 H         -5.0876697736       -2.6031755923        0.0856663377
 H         -5.5020451383        2.5636145108        0.1071158359
 H         -6.9492772261        2.5071428445       -0.9002401737
 H         -5.1550216105        1.7613289410       -2.2453381161
 H         -6.1287450334        0.3285699450       -1.8708405360
 O         -3.1058199490        1.1620194352       -1.2247308266
 C         -1.8296203581        0.7412100759       -0.8610576208
 O         -0.9366994373        1.5582040776       -1.1512167577
 O         -2.7476647295       -2.3980951890        0.6944114791
 C         -0.3364231357       -1.0317977503        0.1667279112
 C          0.4748324656        0.0413404346        0.8447595625
 C          0.0922223112        0.4753610392        2.1115377123
 C          0.8016775467        1.4650932952        2.7631787861
 C          1.9201497431        2.0288141285        2.1742793332
 C          2.3071873518        1.6061457014        0.9084394649
 C          1.5863721157        0.6177119520        0.2516544367
 H          1.8758703528        0.3432947986       -0.7481588410
 N          3.4313545703        2.1614628855        0.2858014962
 S          4.3715433782        1.2613392904       -0.7527589546
 O          5.6659632126        1.9097363163       -0.7114763226
 O          3.7634267430        1.1672323200       -2.0557666998
 C          4.4862430870       -0.3609008792       -0.0161183634
 C          4.1652976926       -1.4723422402       -0.7679048000
 C          4.2584806613       -2.7273919855       -0.1873841466
 C          4.6675096425       -2.8481352142        1.1314220828
 C          4.9927663917       -1.7223963540        1.8726366396
 C          4.9044360633       -0.4659940042        1.2957435559
 H          5.1582680113        0.4260706061        1.8444521488
 H          5.3130675694       -1.8202963665        2.8973015768
 H          4.7338076610       -3.8254358210        1.5827865047
 H          4.0080374830       -3.6036425812       -0.7642381722
 H          3.8445153995       -1.3316732832       -1.7879130956
 H          3.9705131876        2.8047038647        0.8447573864
 H          2.4781267621        2.8011967883        2.6812347918
 H          0.4882913137        1.7969606013        3.7415206379
 H         -0.7799132461        0.0327117946        2.5732043799
 H         -0.5613126502       -1.8100325071        0.9151215439
 C          0.4256521571       -1.7209373911       -0.9550499046
 C         -0.2934016475       -2.4887739536       -2.0221366098
 C          0.4192266803       -1.2165030456       -2.3654289251
 H          1.3356511508       -1.2706599447       -2.9356722503
 H         -0.1661321960       -0.3364909673       -2.5828235324
 H          0.1293781392       -3.4236949449       -2.3573431556
 H         -1.3735078224       -2.4781047593       -2.0045559231
 H          1.3584279196       -2.1480718622       -0.5983936574
