  62
        -98.94416696
 C         -2.6447037076       -1.0899422108        0.1903148530
 C         -2.7379842047       -0.2802552746       -0.9676888958
 C         -3.5425831540        0.9424338596       -0.8285776044
 C         -4.1327641911        1.2142875314        0.3496775444
 C         -4.9273924745        2.4528481835        0.6450837004
 C         -4.0332515253        3.5619193526        1.2175107932
 C         -2.7583394079        3.8062307553        0.4097662906
 H         -2.1199011961        2.9217526117        0.4747399264
 H         -2.2202528828        4.6257631666        0.8913616899
 C         -2.9983100146        4.1483636039       -1.0674284093
 H         -2.3590818053        4.9908184839       -1.3394220875
 H         -4.0316371860        4.4664347542       -1.2099081743
 C         -2.6786763490        3.0127477989       -2.0415171921
 H         -1.6759603065        2.6267661129       -1.8400487648
 H         -2.6730997449        3.4252036047       -3.0538065681
 C         -3.6583912216        1.8324648927       -2.0339243232
 H         -3.4225773174        1.2005776618       -2.8950719824
 H         -4.6801577949        2.2004342904       -2.1457435900
 H         -3.7462469422        3.2850365369        2.2348653984
 H         -4.6156460742        4.4835703732        1.2686613349
 H         -5.6952561107        2.2025923155        1.3789993911
 H         -5.4093202736        2.7953396044       -0.2684206156
 O         -4.0256715347        0.4072679532        1.4372974390
 C         -3.2687349476       -0.7527618187        1.3900633907
 O         -3.2256435891       -1.3843461533        2.4666334210
 O         -2.1769756985       -0.5596374784       -2.0581604609
 C         -1.8170055343       -2.3612242179        0.1534849394
 C         -0.3863125055       -2.0429098411       -0.2114889130
 C          0.3583442614       -2.8001412439       -1.1059201244
 C          1.6717341699       -2.4633692568       -1.3856563996
 C          2.2702650680       -1.3721584757       -0.7840442073
 C          1.5401136773       -0.6163360263        0.1241621451
 C          0.2276509102       -0.9607390506        0.4074713101
 H         -0.3387255861       -0.3724132533        1.1206127795
 N          2.1359022071        0.5012093006        0.7359600584
 S          3.6261034476        0.2920948727        1.4830258891
 O          3.7891861099       -1.0590918259        1.9677046785
 O          3.7015569809        1.3437768691        2.4737419256
 C          4.8041399580        0.6257887765        0.1908474239
 C          5.7802479998       -0.3042607921       -0.1084973792
 C          6.6929986224       -0.0176475310       -1.1118501232
 C          6.6138867642        1.1871569259       -1.7933168973
 C          5.6287403250        2.1115198391       -1.4786064448
 C          4.7141950083        1.8320120195       -0.4758523603
 H          3.9357500401        2.5233996929       -0.1990427093
 H          5.5699416792        3.0471987842       -2.0109563039
 H          7.3240273904        1.4075449070       -2.5746086057
 H          7.4597604181       -0.7345327559       -1.3578306966
 H          5.7985518096       -1.2301421798        0.4439500817
 H          1.5098910802        1.0130998468        1.3405863307
 H          3.2897024664       -1.1022795957       -1.0062181410
 H          2.2362162637       -3.0576872667       -2.0877426614
 H         -0.0908468315       -3.6527994956       -1.5878242085
 H         -1.8223807685       -2.7588088860        1.1797200199
 C         -2.4633462768       -3.3776216000       -0.7651730132
 C         -2.3145018083       -4.8440943552       -0.4964058766
 C         -3.6300321695       -4.1679884245       -0.2566177057
 H         -4.4482187077       -4.3726548163       -0.9305740069
 H         -3.9392762238       -3.9922510373        0.7638714514
 H         -2.2327893144       -5.5171323678       -1.3365599042
 H         -1.7333364275       -5.1389378838        0.3644327377
 H         -2.4958524689       -3.0436386002       -1.7957220081
