  62
        -98.94213174
 C         -2.2848624689       -0.5406419273        0.1400390877
 C         -1.6647764722        0.1605572263       -0.9187550950
 C         -1.7205023651        1.6325182334       -0.8637160195
 C         -2.2405476136        2.2287578202        0.2246596947
 C         -2.4444748004        3.6897366623        0.5677938817
 C         -1.8466894794        4.7875454043       -0.3066435135
 C         -0.3254906288        4.9064452687       -0.2204292586
 H          0.0025064195        5.6461538574       -0.9544267501
 H         -0.0628269110        5.2823253168        0.7718359876
 C          0.4527333805        3.6114922052       -0.4407642209
 H          0.2137307768        2.8870895439        0.3411029633
 H          1.5181656401        3.8394055560       -0.3367976062
 C          0.2499387349        2.9550270231       -1.8037984370
 H          0.9814434672        2.1469858154       -1.8838998520
 H          0.4597309103        3.6783117658       -2.5949325048
 C         -1.1443663771        2.3546653726       -2.0497730772
 H         -1.8405755612        3.1141640855       -2.3998138103
 H         -1.0504061815        1.6059419099       -2.8420834410
 H         -2.2707867467        5.7321962077        0.0446828218
 H         -2.1645487229        4.6622272620       -1.3374051270
 H         -2.0759535580        3.8080858516        1.5923163306
 H         -3.5302589685        3.8315287745        0.6131799759
 O         -2.7483017180        1.5063125212        1.2675894368
 C         -2.7806742371        0.1260322402        1.2570817254
 O         -3.2690500396       -0.3878049753        2.2872008246
 O         -1.0973380202       -0.4135025538       -1.8851831263
 C         -2.2778405603       -2.0624080471        0.1587927985
 C         -0.8350571066       -2.5022165548        0.1976151132
 C         -0.2382357383       -3.3373406557       -0.7368332183
 C          1.1267962414       -3.5713814724       -0.6990947898
 C          1.9251985504       -2.9563060604        0.2488009366
 C          1.3296410810       -2.1439165025        1.2040113575
 C         -0.0393727274       -1.9517169563        1.1956689839
 H         -0.4927466187       -1.3044874528        1.9367724748
 N          2.1609864221       -1.4166731499        2.1110046815
 S          2.2705436304        0.1941757126        1.6002492785
 O          3.1594384170        0.8442065071        2.5407158918
 O          0.9631910391        0.8019416429        1.4690224353
 C          3.0602619058        0.0238488770        0.0188170016
 C          2.2887482460       -0.1715636959       -1.1096286009
 C          2.9254945480       -0.3570724245       -2.3272576729
 C          4.3099967111       -0.3470901930       -2.3947529596
 C          5.0695784618       -0.1511304410       -1.2507830088
 C          4.4408237310        0.0328639381       -0.0301215755
 H          4.9853738993        0.1899507167        0.8864270018
 H          6.1461902738       -0.1441935397       -1.3062061487
 H          4.7984579419       -0.4936279124       -3.3452051723
 H          2.3271804786       -0.5127903190       -3.2107295342
 H          1.2123494773       -0.1810674109       -1.0311865205
 H          1.7954795614       -1.4136810163        3.0549135023
 H          2.9949854511       -3.0866973592        0.2571012978
 H          1.5777035964       -4.2149143025       -1.4383583769
 H         -0.8391376013       -3.7853296615       -1.5110778129
 H         -2.7603854641       -2.3574373399        1.1017291528
 C         -3.0651355159       -2.6287437514       -1.0018736308
 C         -3.6438832568       -4.0079759796       -0.9104883319
 C         -4.5447018970       -2.8117649903       -0.8557630865
 H         -5.1762671004       -2.5997792306       -1.7052120982
 H         -4.9870731708       -2.5442773912        0.0931542737
 H         -3.6615921675       -4.6202512066       -1.7991330184
 H         -3.4793054684       -4.5593314620        0.0029219954
 H         -2.6965007881       -2.2885081786       -1.9620579241
