  62
        -98.93407176
 C          1.8004579678        0.7829718605        0.0352281327
 C          2.5463226954        0.2127116149        1.0973374770
 C          3.6802939712       -0.6431649053        0.7185731667
 C          3.9056390454       -0.8881195668       -0.5847516045
 C          5.0622866420       -1.6705167221       -1.1387002570
 C          6.3402723851       -0.8077241201       -1.1154875621
 C          7.4300183323       -1.3198585089       -0.1733412759
 H          7.9178617873       -2.1828802175       -0.6313629449
 H          8.1784180926       -0.5300955945       -0.0791537824
 C          6.9632118402       -1.7340977411        1.2255496546
 H          7.8572656168       -1.8178958330        1.8470707269
 H          6.5193053440       -2.7299755369        1.1844583289
 C          5.9737215774       -0.7834920000        1.9118025691
 H          6.2339919150       -0.7293196899        2.9708446447
 H          6.0686269930        0.2256038169        1.5099715267
 C          4.5009332128       -1.2273146890        1.8351609536
 H          4.4506424512       -2.3191078333        1.7932725338
 H          3.9923486221       -0.9109511199        2.7508498747
 H          6.0617592134        0.2097052769       -0.8327097864
 H          6.7580124898       -0.7496953678       -2.1217126752
 H          5.2033928567       -2.5800981354       -0.5588364089
 H          4.8072558094       -1.9455104396       -2.1624435884
 O          3.1265183052       -0.3808375243       -1.5733834565
 C          2.0556439758        0.4628202902       -1.2991424982
 O          1.4363327338        0.8329510893       -2.3121924870
 H         -0.5342294428       -0.6756818341        0.5447422056
 C         -1.0738377639       -0.0239355747       -0.1319757483
 C         -0.6032084719        1.2671774356       -0.3429442613
 C         -1.3036123373        2.0930531433       -1.2108991088
 C         -2.4297690803        1.6255578542       -1.8668011527
 C         -2.8847491251        0.3358763209       -1.6678736234
 C         -2.1969175732       -0.4959047482       -0.7924868811
 N         -2.6573700676       -1.8054433520       -0.5740047564
 S         -4.2984953153       -2.0329707858       -0.3431324818
 O         -4.4043059756       -3.2305184948        0.4610976433
 O         -4.9696866516       -2.0722001288       -1.6184355021
 C         -4.8413188046       -0.6065119829        0.5814069359
 C         -4.2711800630       -0.3789277838        1.8184456359
 C         -4.6514304401        0.7434714211        2.5356154616
 C         -5.5908038099        1.6152164268        2.0060086259
 C         -6.1583848862        1.3696718355        0.7656228161
 C         -5.7801026815        0.2493881678        0.0428557033
 H         -6.1932076165        0.0221918717       -0.9263438421
 H         -6.8899467613        2.0480990063        0.3573898216
 H         -5.8815790011        2.4902356980        2.5654911438
 H         -4.2109582899        0.9353204402        3.5009223434
 H         -3.5471870272       -1.0784270514        2.2050846190
 H         -2.1141596221       -2.3274870523        0.0970412917
 H         -3.7478528057       -0.0474755505       -2.1875117720
 H         -2.9567604601        2.2738884877       -2.5499402105
 H         -0.9525677975        3.0942799866       -1.3971438168
 C          0.6383759479        1.6893511714        0.4012589344
 H          0.4708268096        1.4898417154        1.4731351607
 C          0.9400061774        3.1756535483        0.2851104353
 C          2.3377663899        3.6925829933        0.4440844829
 C          1.6596784224        3.7646529004       -0.8895975626
 H          1.3437342061        4.7329185221       -1.2497469334
 H          1.9791965775        3.0925614664       -1.6701754022
 H          3.1273505069        2.9670683400        0.5770947206
 H          2.4880702207        4.6070649163        0.9980043128
 H          0.1537651960        3.7811289870        0.7253028390
 O          2.2693622451        0.4058034670        2.3120642338
