  62
        -98.93786204
 C         -2.1559335471       -0.9913305574       -0.0804711910
 C         -3.0748499813       -0.6905072949        0.9581580655
 C         -3.9256040507        0.4915179310        0.7627168270
 C         -3.7684600939        1.2311696467       -0.3498330973
 C         -4.6021691107        2.4204809801       -0.7334310469
 C         -5.9652705118        1.9523928807       -1.2824224591
 C         -7.1626482145        2.3483530083       -0.4181852111
 H         -7.3718761277        3.4095584294       -0.5676959337
 H         -8.0268255906        1.7876874001       -0.7808410429
 C         -7.0083128970        2.1093114372        1.0867913484
 H         -8.0058326300        2.1862594550        1.5245097265
 H         -6.4130548011        2.9108504392        1.5268563539
 C         -6.3950835777        0.7630311047        1.4927055002
 H         -6.5447468000        0.0200140448        0.7090491456
 H         -6.9234067621        0.4030070976        2.3776993660
 C         -4.9002964958        0.8239348752        1.8586009997
 H         -4.6637779568        1.8094598557        2.2694915206
 H         -4.7017061375        0.0860931540        2.6414127757
 H         -6.1144943766        2.3627852448       -2.2822731736
 H         -5.9356787581        0.8661173387       -1.3902065003
 H         -4.7378731581        3.0679935477        0.1300788085
 H         -4.0514767986        2.9694792498       -1.4977588197
 O         -2.8618626330        0.9263433653       -1.3128214998
 C         -2.0343730486       -0.1825553997       -1.2098612385
 O         -1.2665656383       -0.3208714828       -2.1830876072
 H          0.7477963430       -1.3526452439       -1.5197754977
 C          1.0260153847       -1.3240090633       -0.4776877969
 C          0.1195249843       -1.7413687345        0.4858762445
 C          0.4844789963       -1.6509300115        1.8254141510
 C          1.7254832793       -1.1590637059        2.1870479477
 C          2.6238727119       -0.7371980982        1.2226959278
 C          2.2618397978       -0.8075681380       -0.1155928096
 N          3.1585878187       -0.3546528284       -1.1027448012
 S          3.7417496100        1.2131007584       -0.9287322112
 O          2.8211990579        2.0467700404       -0.1893572074
 O          4.0761004235        1.6497482095       -2.2670882690
 C          5.2491260572        0.9970196270       -0.0036080000
 C          6.2087817044        0.1448279722       -0.5144187158
 C          7.3905969921       -0.0296303420        0.1876265862
 C          7.5934459580        0.6494687366        1.3799487000
 C          6.6218263909        1.5040735567        1.8777175608
 C          5.4365642919        1.6820505109        1.1808473538
 H          4.6500484062        2.3313874266        1.5314354677
 H          6.7809937297        2.0315081717        2.8045262001
 H          8.5140626609        0.5117621770        1.9247513437
 H          8.1481870669       -0.6937817890       -0.1959634689
 H          6.0126241982       -0.3597347060       -1.4456221301
 H          2.8033317175       -0.4837107659       -2.0402774306
 H          3.5885669561       -0.3422261748        1.4967564830
 H          1.9952111697       -1.0985153966        3.2304024121
 H         -0.2255148489       -1.9528153255        2.5821521306
 C         -1.2653494805       -2.2098809553        0.1109157102
 H         -1.6867438588       -2.7388066989        0.9759752158
 C         -1.2778035273       -3.1460403075       -1.0795813001
 C         -0.7746081176       -4.5470067229       -0.9070505653
 C         -2.2395370667       -4.2947650539       -1.0955244714
 H         -2.6956756464       -4.5699388436       -2.0346932447
 H         -2.8922463101       -4.4122277939       -0.2429120716
 H         -0.4326723463       -4.8347574491        0.0754672346
 H         -0.2219707885       -4.9992989551       -1.7160844831
 H         -1.0869850920       -2.6524984446       -2.0237654283
 O         -3.1804709574       -1.3866918011        2.0028312556
