  62
        -98.93938591
 C          2.4362395925        1.2474921959        0.0105526762
 C          3.1633682624        0.5048702862        0.9678286089
 C          3.8777912259       -0.6846990518        0.4728573448
 C          3.7881446763       -1.0028358442       -0.8304285011
 C          4.3838319860       -2.1974785058       -1.5227448390
 C          3.3688046027       -3.3518356876       -1.5827672264
 C          3.3643710672       -4.2704002438       -0.3612020333
 H          2.5186548282       -4.9532185777       -0.4722771516
 H          4.2752109541       -4.8727308744       -0.3618523507
 C          3.2482965963       -3.5612272606        0.9907127029
 H          2.4978905072       -2.7704149539        0.9254178906
 H          2.8852125628       -4.2885622636        1.7197022619
 C          4.5823327221       -2.9823525387        1.4860520412
 H          5.3916546514       -3.3890571584        0.8802526827
 H          4.7626300869       -3.3173741795        2.5095001151
 C          4.6683317471       -1.4486574602        1.5001231002
 H          5.7189702222       -1.1499817133        1.4242514788
 H          4.3058437220       -1.0730568023        2.4622963467
 H          3.5823746976       -3.9616448801       -2.4629755337
 H          2.3739892743       -2.9186145309       -1.7213241389
 H          4.6124098564       -1.8832918556       -2.5431710812
 H          5.3037159512       -2.5074159107       -1.0359809672
 O          3.0612058418       -0.2689363966       -1.7174658727
 C          2.3607660486        0.8599621338       -1.3273459816
 O          1.7303216665        1.4175423197       -2.2446482989
 O          3.2034526704        0.8137618770        2.1907139985
 C          1.6609429412        2.4732565606        0.4611280473
 C          0.1875894607        2.2400703029        0.2322590948
 C         -0.6341090350        3.1099919258       -0.4707052176
 C         -1.9696154167        2.8031081174       -0.6700674291
 C         -2.5146074301        1.6354075598       -0.1694840065
 C         -1.7031525879        0.7617522721        0.5432819858
 C         -0.3679701963        1.0722149990        0.7421106698
 H          0.2653900778        0.3872501824        1.2935886065
 N         -2.2501364795       -0.4252764178        1.0678745924
 S         -3.0346327859       -1.4495382760       -0.0104440895
 O         -2.9527937073       -2.7634000046        0.5908043904
 O         -2.5040360063       -1.3217781129       -1.3483299133
 C         -4.7249258704       -0.8929796837        0.0392333064
 C         -5.3681972654       -0.5382355080       -1.1301449515
 C         -6.6857960422       -0.1115048549       -1.0666111741
 C         -7.3324506412       -0.0482105887        0.1581695811
 C         -6.6725670220       -0.4106001880        1.3232241864
 C         -5.3561950460       -0.8394609227        1.2667015336
 H         -4.8079128999       -1.1323045534        2.1464207113
 H         -7.1786766928       -0.3596515816        2.2737234774
 H         -8.3567427539        0.2862371982        0.2049940139
 H         -7.2000754037        0.1704015310       -1.9713207536
 H         -4.8214929459       -0.5964631095       -2.0579730269
 H         -1.5945802149       -0.9518085830        1.6281606875
 H         -3.5518970684        1.3909355093       -0.3301278218
 H         -2.5949049906        3.4839184123       -1.2271533042
 H         -0.2269052468        4.0215835366       -0.8754795721
 H          1.8316975389        2.5446254703        1.5455524541
 C          2.1961361295        3.7243623818       -0.2006217792
 C          2.0343629524        5.0555502978        0.4686759985
 C          3.3847178314        4.4098612880        0.4014999633
 H          4.1272882743        4.8290703363       -0.2606208117
 H          3.7968390561        3.9856930243        1.3055463833
 H          1.8514278833        5.9232031465       -0.1467861432
 H          1.5299460697        5.0761587931        1.4227270270
 H          2.1388838224        3.6812542346       -1.2823098066
