  62
        -98.93945585
 C          2.5731787864        0.8472079552        0.2355490809
 C          3.1563525183       -0.1676466224        1.0359699162
 C          3.4432350960       -1.4394101514        0.3644714981
 C          3.1302205387       -1.5911783807       -0.9349779653
 C          3.3760395152       -2.8200682225       -1.7675252038
 C          2.2830377624       -3.8895970961       -1.6350638344
 C          2.2790422811       -4.6535485911       -0.3102591967
 H          1.6165731011       -5.5117421757       -0.4384687658
 H          3.2793529476       -5.0395513793       -0.1112785343
 C          1.7930377441       -3.8315747071        0.8917039716
 H          1.2521615759       -2.9514330388        0.5336638367
 H          1.0831968443       -4.4236974594        1.4740017691
 C          2.9021056767       -3.3866276191        1.8457014828
 H          3.3552991130       -4.2639081680        2.3123668722
 H          2.4522889350       -2.7793842234        2.6354297947
 C          4.0115679691       -2.5574544167        1.1857380326
 H          4.6221053363       -2.1132669300        1.9756497261
 H          4.6440256042       -3.1968929027        0.5705934181
 H          1.3095644932       -3.4153385657       -1.7855814969
 H          2.4307893585       -4.6082736671       -2.4445411269
 H          3.4085708239       -2.4887804116       -2.8077161255
 H          4.3434578956       -3.2515285892       -1.5084082999
 O          2.5494301761       -0.6031448974       -1.6650457568
 C          2.2239058506        0.6233788231       -1.0978810018
 O          1.6476196883        1.4004932141       -1.8818749027
 O          3.4176131276       -0.0182607253        2.2597430512
 C          2.2185288544        2.1599387464        0.9132492301
 C          0.7862094982        2.5120960324        0.5983359019
 C          0.3843762789        3.7065491784        0.0171458759
 C         -0.9488714634        3.9256088105       -0.2863977149
 C         -1.9063478849        2.9643463127       -0.0211244589
 C         -1.5146625504        1.7688542743        0.5648526841
 C         -0.1840730882        1.5580864649        0.8816244701
 H          0.1173874714        0.6167539051        1.3281761549
 N         -2.4877076675        0.7683709616        0.8181179005
 S         -3.0035590470       -0.0813855871       -0.5528915763
 O         -2.1797255477       -1.2617530492       -0.7253795023
 O         -3.0858094151        0.8244920189       -1.6686194196
 C         -4.6443911504       -0.5628926800       -0.0486398986
 C         -5.6202947138        0.4140143659       -0.0073400626
 C         -6.8959579751        0.0705068598        0.4093296532
 C         -7.1729427499       -1.2380332924        0.7772942179
 C         -6.1830584290       -2.2073820628        0.7309022714
 C         -4.9040402592       -1.8689151745        0.3161498358
 H         -4.1048042871       -2.5903308809        0.2595469421
 H         -6.4008880800       -3.2241027017        1.0160112308
 H         -8.1668428947       -1.5039482329        1.1009748210
 H         -7.6683020075        0.8216995495        0.4463260353
 H         -5.3605186245        1.4150005188       -0.3091387904
 H         -2.1395384697        0.0787957330        1.4727378527
 H         -2.9406385178        3.1144402304       -0.2824508017
 H         -1.2431805584        4.8556600574       -0.7486664148
 H          1.1188335070        4.4559255195       -0.2284812899
 H          2.2820463575        1.9319804906        1.9911752016
 C          3.1988045622        3.2936528273        0.6569116308
 C          4.6277864671        3.0125269398        0.3029032051
 C          3.7103713560        3.6212162440       -0.7126911722
 H          3.8515833471        4.6607325385       -0.9705970917
 H          3.3674429856        3.0106676761       -1.5329417671
 H          5.3962561734        3.6311507636        0.7414445559
 H          4.9175008399        1.9795311423        0.1746235213
 H          3.0282048828        4.1325363919        1.3246876430
