  62
        -98.93880530
 C          1.7905289502        1.5054238106        0.2091205712
 C          1.5984252506        0.1619371307       -0.1914971193
 C          2.6385704407       -0.7946290492        0.2283729205
 C          3.6857002305       -0.3604000093        0.9499557808
 C          4.8385373506       -1.1577821092        1.5073690207
 C          5.4595582010       -2.2323223187        0.6047375504
 C          5.4565679112       -1.9012722781       -0.8948701795
 H          5.1843297010       -0.8554067681       -1.0470571191
 H          6.4653738413       -2.0352478077       -1.2899821194
 C          4.5131879815       -2.7970625880       -1.7011748900
 H          4.8191907117       -2.7747353975       -2.7499880200
 H          4.6242131717       -3.8257205281       -1.3512767104
 C          3.0363049414       -2.4070574684       -1.6510671001
 H          2.4669960317       -3.1880999283       -2.1605751505
 H          2.8795334613       -1.4801624582       -2.2090782698
 C          2.4501757511       -2.2074251191       -0.2440449201
 H          1.3690122312       -2.3541772493       -0.3070246404
 H          2.8625394712       -2.9256553393        0.4601140997
 H          4.9464563412       -3.1802223989        0.7599737099
 H          6.4871583110       -2.3731183486        0.9443491205
 H          4.5109853806       -1.6214995897        2.4424180804
 H          5.5972184704       -0.4154047191        1.7669728211
 O          3.8246267002        0.9454627106        1.3192982814
 C          2.8893218300        1.9024205005        0.9693112116
 O          3.1433345197        3.0503541804        1.3877994821
 O          0.6095169808       -0.2291389393       -0.8628108196
 C          0.7688459700        2.5664678005       -0.1637921985
 C         -0.5667093800        2.1586838900        0.4068033711
 C         -0.7066091002        2.0963861694        1.7909813411
 C         -1.8885411902        1.6684085289        2.3640195907
 C         -2.9538745200        1.2812204989        1.5691159904
 C         -2.8212140798        1.3334512095        0.1887890604
 C         -1.6386902898        1.7833668000       -0.3850941992
 H         -1.5535694496        1.8144536805       -1.4594898192
 N         -3.8912290295        0.9270814396       -0.6297726299
 S         -4.6077786592       -0.5515066007       -0.3084329806
 O         -5.2892896889       -0.9097134204       -1.5323449609
 O         -5.4388528194       -0.4325580914        0.8639928693
 C         -3.2673927490       -1.6842891905        0.0063625192
 C         -2.9823956291       -2.0695594110        1.3000517090
 C         -1.9201219790       -2.9307195408        1.5218907489
 C         -1.1668113687       -3.3888798302        0.4526556988
 C         -1.4650390886       -2.9905743298       -0.8411161611
 C         -2.5226718787       -2.1268126499       -1.0682436009
 H         -2.7870619087       -1.8028275696       -2.0619110908
 H         -0.8737571184       -3.3425198693       -1.6711732411
 H         -0.3421514786       -4.0620432001        0.6290716787
 H         -1.6821798491       -3.2406027512        2.5269514088
 H         -3.5977713394       -1.6993367114        2.1035186291
 H         -3.6913632194        1.0078805300       -1.6164611698
 H         -3.8814395500        0.9374811985        1.9970405301
 H         -1.9822297904        1.6299475284        3.4388354007
 H          0.1330477696        2.3811357293        2.4109272313
 H          1.0913692897        3.4904207504        0.3355722719
 C          0.7625201002        2.7966790011       -1.6601531084
 C          0.2053939400        4.0712629812       -2.2172567980
 C          1.6834713601        3.8247291815       -2.2419265879
 H          2.1564574303        3.6158697720       -3.1899208179
 H          2.3087653198        4.3779022414       -1.5562786575
 H         -0.3353071798        4.0362707814       -3.1510447881
 H         -0.1757646003        4.7974848708       -1.5154017078
 H          0.6190427905        1.8844055513       -2.2274290988
