  62
        -98.93980871
 C         -2.4763624936       -1.0284798542       -0.0682226944
 C         -3.7030425821       -1.0659321962        0.6374419361
 C         -4.8562562676       -0.4784777196       -0.0528828237
 C         -4.7029269946        0.0403581256       -1.2849684369
 C         -5.7880008880        0.6545760227       -2.1273913202
 C         -6.0650842134        2.1305089226       -1.8103385931
 C         -6.7911891094        2.3866721725       -0.4891759359
 H         -7.1121261677        3.4302122822       -0.4971224669
 H         -7.6895399353        1.7702345000       -0.4438552307
 C         -5.9344051014        2.1441681297        0.7612666367
 H         -4.8784711543        2.1227458948        0.4810299858
 H         -6.0623673578        2.9760266103        1.4577081391
 C         -6.2715024929        0.8613032522        1.5214359155
 H         -7.2854550968        0.9284260999        1.9219960109
 H         -5.5820816768        0.7719499368        2.3649924233
 C         -6.1614473773       -0.4183117554        0.6819360702
 H         -6.9953835214       -0.4827212346       -0.0165370262
 H         -6.2024123404       -1.2761494597        1.3576728061
 H         -6.6802113785        2.5279404218       -2.6209445486
 H         -5.1167672162        2.6729665460       -1.8161457040
 H         -5.4535234853        0.5826880190       -3.1644886028
 H         -6.7074430789        0.0788984674       -2.0176884477
 O         -3.5084479920        0.0471582901       -1.9338966883
 C         -2.3637040491       -0.4641178587       -1.3388133201
 O         -1.3375041623       -0.3665103409       -2.0377141806
 O         -3.8277789441       -1.5674120738        1.7870626888
 C         -1.2339740081       -1.5960094043        0.5953996490
 C         -0.2291556963       -0.4886997608        0.7981034642
 C         -0.5962824954        0.6037610616        1.5806514980
 C          0.2783276658        1.6525589199        1.7863150895
 C          1.5380003817        1.6398237586        1.2123339458
 C          1.9159374243        0.5549686516        0.4343869187
 C          1.0386710165       -0.5069236675        0.2414376194
 H          1.3470650204       -1.3420896509       -0.3676133579
 N          3.1832386410        0.5413315221       -0.1737938548
 S          4.5031072601        1.0713955039        0.7344647009
 O          4.4739198357        0.4716883270        2.0501118211
 O          4.5356457148        2.5122296373        0.7026294487
 C          5.8542626158        0.4129905870       -0.2221150207
 C          6.2972595943        1.1218026708       -1.3226284898
 C          7.3284389094        0.5973896569       -2.0855285106
 C          7.8950575619       -0.6201006971       -1.7381987507
 C          7.4401821716       -1.3193595336       -0.6303357026
 C          6.4084421417       -0.8012112534        0.1365320986
 H          6.0293734754       -1.3057726171        1.0108467148
 H          7.8845155658       -2.2642146364       -0.3616658134
 H          8.6982396189       -1.0254068289       -2.3331494508
 H          7.6865474916        1.1388225402       -2.9462407037
 H          5.8323601652        2.0670399095       -1.5493243460
 H          3.3784665527       -0.3392230004       -0.6298481443
 H          2.2308384620        2.4521950943        1.3621203469
 H         -0.0209246349        2.4915576309        2.3970237102
 H         -1.5822286351        0.6177528899        2.0256272176
 H         -1.5653019655       -1.9384718941        1.5866306623
 C         -0.7028428991       -2.7839056020       -0.1773582401
 C          0.1638724442       -3.7957009752        0.5096492450
 C         -1.2417701801       -4.1479237188        0.1281566047
 H         -1.3985438751       -4.8347685615       -0.6899413595
 H         -1.9820416006       -4.2258544981        0.9108423593
 H          0.9722651869       -4.2464384345       -0.0460448482
 H          0.3819189887       -3.6371063905        1.5550475941
 H         -0.4965894769       -2.5506973766       -1.2158000826
