  62
        -98.93808743
 C         -2.0445392104       -0.7565679147        0.6015896092
 C         -1.9859834889       -0.0037367905       -0.5946185199
 C         -1.9703580520        1.4603274680       -0.4438606569
 C         -1.9717782369        1.9967347531        0.7878378612
 C         -1.8895419895        3.4516299407        1.1792077580
 C         -2.7238887191        4.4542128348        0.3700674033
 C         -4.0606340431        3.9110673218       -0.1558184692
 H         -4.2817697748        2.9498903453        0.3111556126
 H         -4.8582708940        4.6017445806        0.1235743415
 C         -4.0842919057        3.7561232383       -1.6782833789
 H         -3.6161804441        4.6350071770       -2.1265410680
 H         -5.1240889125        3.7318738210       -2.0126021046
 C         -3.4056782927        2.4981891740       -2.2193686616
 H         -3.3879363181        2.5669095228       -3.3096029578
 H         -3.9993233436        1.6167450564       -1.9626931652
 C         -1.9727613013        2.2524507291       -1.7190529984
 H         -1.4552542171        1.6301032752       -2.4542976916
 H         -1.4225159544        3.1842206420       -1.6120847153
 H         -2.1349330881        4.8221523747       -0.4687964014
 H         -2.9088398242        5.3084763273        1.0235734122
 H         -0.8359975347        3.7461022319        1.1446931300
 H         -2.1964573746        3.4807718145        2.2277911732
 O         -2.0168431997        1.2315974371        1.9171368994
 C         -2.0395370937       -0.1504463812        1.8546600492
 O         -2.0624959129       -0.7173993664        2.9682658260
 O         -1.9431835852       -0.5289016258       -1.7381542537
 C         -1.9886961752       -2.2727782377        0.5414308316
 C         -0.7163042812       -2.6816136354       -0.1624272055
 C         -0.6550645717       -3.6677818196       -1.1379555649
 C          0.5429775459       -3.9469970624       -1.7736002388
 C          1.6927907630       -3.2445528687       -1.4643901784
 C          1.6454602476       -2.2709038729       -0.4722521028
 C          0.4536977868       -2.0175260740        0.1839033220
 H          0.4293943386       -1.2589108245        0.9541643782
 N          2.7941336281       -1.5445143869       -0.1102672792
 S          2.5903174348        0.0625608138        0.3714192211
 O          2.2668901234        0.0868170078        1.7774206329
 O          1.6751326230        0.7472655119       -0.5128297271
 C          4.2499429908        0.6730080813        0.1347675736
 C          4.5608485858        1.3613408953       -1.0226188971
 C          5.8611013966        1.8035134151       -1.2110586705
 C          6.8236062609        1.5479478866       -0.2459775595
 C          6.4963996116        0.8562025009        0.9109785620
 C          5.1980609827        0.4126484064        1.1062329828
 H          4.8929195451       -0.1196562288        1.9920663247
 H          7.2463221974        0.6617528509        1.6605558310
 H          7.8345025533        1.8928684059       -0.3950119358
 H          6.1169909916        2.3445077969       -2.1077725825
 H          3.7764926545        1.5424801104       -1.7401511952
 H          3.5433371170       -1.6367760154       -0.7831533507
 H          2.6182184436       -3.4439671110       -1.9828535905
 H          0.5762402712       -4.7098042610       -2.5367022327
 H         -1.5475172663       -4.2060778346       -1.4122929114
 H         -1.9329118526       -2.6178176884        1.5849236714
 C         -3.2421711747       -2.8336640642       -0.0964622271
 C         -3.7440278882       -4.1918522465        0.2895171432
 C         -4.4797764540       -2.9658736581        0.7374916457
 H         -5.4333862381       -2.7391982665        0.2849372635
 H         -4.4086441891       -2.6737706937        1.7754579979
 H         -4.1976951928       -4.8092369928       -0.4709963024
 H         -3.1807256248       -4.7410953641        1.0287174485
 H         -3.3620002649       -2.5126318796       -1.1247623650
