  62
        -98.94043051
 C         -2.0635124683        1.0256013742       -0.5293165705
 C         -2.7674766319        0.0532015539       -1.2857006421
 C         -4.1835226201       -0.1310842930       -0.9548872957
 C         -4.7437152735        0.6224085328        0.0084515366
 C         -6.1822627353        0.5755861182        0.4468318736
 C         -6.4859132813       -0.5240064348        1.4735805575
 C         -6.4898860735       -1.9490181079        0.9187302435
 H         -6.9276927889       -2.5904770597        1.6861897257
 H         -7.1412449185       -1.9960398749        0.0454265179
 C         -5.1002668916       -2.4920023360        0.5567797235
 H         -4.9914408911       -3.5056268862        0.9493143301
 H         -4.3325164429       -1.8805872502        1.0368421292
 C         -4.8142712372       -2.5551200394       -0.9437553531
 H         -3.7920692152       -2.9171350196       -1.0819909843
 H         -5.4914245050       -3.2703169221       -1.4162250196
 C         -4.9420221559       -1.2088103354       -1.6684739157
 H         -4.5101369296       -1.3143931445       -2.6667752053
 H         -5.9918346871       -0.9336288075       -1.7686830938
 H         -5.7606277516       -0.4523337364        2.2873673676
 H         -7.4743289131       -0.3168417798        1.8902128434
 H         -6.8267899057        0.4502022819       -0.4237028774
 H         -6.3995610426        1.5431651003        0.9044373422
 O         -4.0428552062        1.5562453576        0.7004808085
 C         -2.6849274274        1.7655252515        0.4778598986
 O         -2.1858266661        2.6228491006        1.2280314109
 O         -2.2323639209       -0.6232899711       -2.2053562126
 C         -0.5934877247        1.2019563087       -0.8636100499
 C          0.2566490208        0.2765829959       -0.0315500148
 C          0.1340320413        0.2363598345        1.3538272216
 C          0.9284216826       -0.6109666630        2.1047539811
 C          1.8633527603       -1.4282036238        1.4931609815
 C          1.9971735478       -1.3913332408        0.1120937379
 C          1.1952818475       -0.5430535311       -0.6406919227
 H          1.2920910022       -0.5318550831       -1.7179056651
 N          2.9756376769       -2.1960450932       -0.5066570023
 S          4.5564456136       -1.9072385978       -0.0195625312
 O          5.3884676817       -2.4222679889       -1.0826732003
 O          4.7631587066       -2.4776510448        1.2866119834
 C          4.6551648777       -0.1286147984        0.0580817375
 C          4.8160253185        0.5686055098       -1.1230978128
 C          4.7903489366        1.9533626651       -1.0932014678
 C          4.5902550236        2.6138104310        0.1095257643
 C          4.4330272746        1.8993891710        1.2866275074
 C          4.4649548198        0.5141515710        1.2646449445
 H          4.3499934185       -0.0762644867        2.1584928238
 H          4.2782325866        2.4162645879        2.2199856174
 H          4.5531819134        3.6911459956        0.1285386816
 H          4.9160719409        2.5128408405       -2.0062790157
 H          4.9697884900        0.0183408848       -2.0378005633
 H          2.9192713577       -2.1879753797       -1.5153844755
 H          2.4955457256       -2.0895369161        2.0635077214
 H          0.8196322111       -0.6348022073        3.1785614073
 H         -0.5863043988        0.8820767347        1.8332012328
 H         -0.5085607290        0.8716952952       -1.9112017079
 C         -0.1192640349        2.6477695334       -0.8031287003
 C          0.8839653179        3.1501751383        0.1876071494
 C          1.2710939395        2.9916597091       -1.2498134709
 H          1.4175021651        3.8756139111       -1.8512176371
 H          1.9285960264        2.1716260646       -1.4975301240
 H          0.7362075985        4.1432363340        0.5826875104
 H          1.2919715049        2.4534628168        0.9027047257
 H         -0.9053470730        3.3419007616       -1.0808868445
