  62
        -98.94489967
 C         -1.0703371869       -1.4315966218       -0.6811242960
 C         -2.3304090854       -1.6742500921       -0.0729563352
 C         -3.3306083631       -0.6065617205       -0.1866509688
 C         -3.0130956840        0.5190084667       -0.8517233411
 C         -3.9155181260        1.7089303827       -1.0007071568
 C         -3.7105014417        2.7162087831        0.1392372934
 C         -3.7132777084        2.0862016353        1.5316947041
 H         -2.8495641870        1.4238617014        1.6254115200
 H         -3.5814478972        2.8938008752        2.2550194000
 C         -4.9899478559        1.3045030136        1.8714669764
 H         -5.3065583158        1.5706689975        2.8822206130
 H         -5.7938701909        1.5947548786        1.1939177540
 C         -4.8293423054       -0.2163766606        1.8416487788
 H         -5.7164989044       -0.6614670307        2.3003212000
 H         -3.9675267505       -0.5072268670        2.4476969950
 C         -4.6716231683       -0.8412058355        0.4498322148
 H         -4.7651177894       -1.9256025853        0.5600163492
 H         -5.4744263641       -0.4925360244       -0.2031958705
 H         -4.4971261403        3.4705019383        0.0780776980
 H         -2.7488829854        3.2096445006       -0.0083122395
 H         -4.9498276080        1.3700840320       -1.0184210775
 H         -3.6868720840        2.1955007860       -1.9501636420
 O         -1.8069822239        0.7104198926       -1.4394661548
 C         -0.8058678617       -0.2498937390       -1.3750073537
 O          0.2336228346        0.0827650534       -1.9764309578
 O         -2.6077234505       -2.7451937784        0.5318047638
 C         -0.0303886381       -2.5296113956       -0.5348791853
 C          0.9133849528       -2.2325475331        0.6063668298
 C          1.0261016677       -3.1050470070        1.6823973531
 C          1.8950635289       -2.8282915540        2.7230417004
 C          2.6657583500       -1.6804994656        2.7083151950
 C          2.5535900409       -0.7959325074        1.6398991226
 C          1.6816492583       -1.0762603561        0.5983789167
 H          1.6061073358       -0.3916089069       -0.2307416311
 N          3.2814651619        0.3980639540        1.6295752706
 S          3.6590491711        1.2165350350        0.2263917367
 O          4.0554189597        0.3175837943       -0.8321518447
 O          4.6737895319        2.1638309138        0.6454608776
 C          2.1944620569        2.1283001152       -0.2076524681
 C          2.0106299667        2.4795186835       -1.5287287064
 C          0.9146030584        3.2536630292       -1.8714819646
 C          0.0251812627        3.6608457028       -0.8911977815
 C          0.2209340184        3.2957208998        0.4315808155
 C          1.3176890113        2.5252385832        0.7813644029
 H          1.4927889873        2.2205782210        1.8002860273
 H         -0.4780536637        3.6052945196        1.1930861709
 H         -0.8282070739        4.2625033386       -1.1641352866
 H          0.7531577426        3.5246090914       -2.9025170888
 H          2.7143155712        2.1251804039       -2.2648270365
 H          3.9787648115        0.5044954506        2.3503542898
 H          3.3452110621       -1.4630102206        3.5181063528
 H          1.9752889387       -3.5138840629        3.5528952122
 H          0.4185566264       -3.9977450374        1.7044268444
 H         -0.6013406430       -3.4308068675       -0.2714844159
 C          0.7518319102       -2.8147858100       -1.8015563225
 C          1.3293645156       -4.1821728765       -2.0054803617
 C          0.1672579554       -3.7271397629       -2.8356062438
 H          0.3314901576       -3.4961856838       -3.8773119741
 H         -0.8032931425       -4.1556511932       -2.6311309770
 H          2.2975163165       -4.2650271702       -2.4752722249
 H          1.1458752332       -4.9238254315       -1.2426950949
 H          1.3296262439       -1.9692390814       -2.1525014105
