  62
        -98.94486823
 C          1.9338717875        0.9392955996       -0.3565890166
 C          3.0306749519        1.2276264321        0.4943481151
 C          4.3236178105        0.6674798008        0.0890802645
 C          4.4093818276       -0.0663845732       -1.0352853280
 C          5.6596847483       -0.6938052888       -1.5891117725
 C          6.0018706315       -2.0544068062       -0.9665159470
 C          6.5304303757       -1.9996556854        0.4674643471
 H          6.9329264204       -2.9881341774        0.6978101683
 H          7.3575099137       -1.2910397581        0.5218232977
 C          5.4720502984       -1.6408906774        1.5199784842
 H          4.4744508234       -1.7839821975        1.0977185652
 H          5.5588205636       -2.3216783164        2.3698427310
 C          5.5793793407       -0.2174615064        2.0672239672
 H          6.5201756918       -0.1038027042        2.6103418035
 H          4.7610348271       -0.0603283716        2.7743215836
 C          5.4976178343        0.8786411408        0.9967305413
 H          5.3611401505        1.8392156397        1.4994094988
 H          6.4225575011        0.9128713915        0.4216470638
 H          6.7662586187       -2.5171924316       -1.5950532038
 H          5.1131673925       -2.6889448525       -1.0033368917
 H          6.5006385487       -0.0117443434       -1.4608807007
 H          5.4883050273       -0.8379437924       -2.6580707427
 O          3.3356432868       -0.3134972221       -1.8304808009
 C          2.0714351969        0.1590151260       -1.5045411935
 O          1.1844242430       -0.1725951596       -2.3144533429
 O          2.9321984087        1.9227849760        1.5397300231
 C          0.5657504983        1.4686577363        0.0400709293
 C         -0.2954101220        0.3015896029        0.4521796544
 C         -0.1374662043       -0.2455984332        1.7225102513
 C         -0.8896275055       -1.3337362440        2.1241071427
 C         -1.8135607509       -1.9033187077        1.2646167252
 C         -1.9706829203       -1.3698158225       -0.0067210975
 C         -1.2242903002       -0.2688583991       -0.4041615096
 H         -1.3502525471        0.1262196166       -1.3997312816
 N         -2.9240027584       -1.9389658856       -0.8808454118
 S         -4.5168058156       -1.7796354262       -0.3832281192
 O         -4.7543901511       -2.6696131804        0.7245780689
 O         -5.3236070441       -1.9965002464       -1.5625780263
 C         -4.6352363348       -0.0839097372        0.1563317735
 C         -4.4085407458        0.2217344781        1.4830742205
 C         -4.4049446783        1.5518724138        1.8713313350
 C         -4.6259736378        2.5469379902        0.9319842590
 C         -4.8575821255        2.2227938708       -0.3960547455
 C         -4.8550647412        0.8953575958       -0.7917638860
 H         -5.0327379492        0.6010846435       -1.8138938588
 H         -5.0344652385        2.9997211988       -1.1224620121
 H         -4.6191235112        3.5819109019        1.2358478748
 H         -4.2251898084        1.8066184039        2.9034204258
 H         -4.2450503314       -0.5809410659        2.1829795610
 H         -2.8288570473       -1.6063986585       -1.8302738662
 H         -2.4182747831       -2.7457677751        1.5597462120
 H         -0.7563111999       -1.7441078347        3.1136276654
 H          0.5910730758        0.1927301482        2.3902976524
 H          0.7447567014        2.0886978338        0.9287957763
 C         -0.0567235463        2.3292775594       -1.0392033187
 C         -1.2702523674        3.1451930337       -0.7096869540
 C          0.0472283708        3.8203838320       -0.9411066451
 H          0.1854705823        4.3865040382       -1.8500666907
 H          0.5699554290        4.2297961061       -0.0893578555
 H         -2.0407165084        3.2485117247       -1.4580246063
 H         -1.6455408119        3.0893799001        0.3008322947
 H          0.0093482526        1.8927746642       -2.0284713875
