  62
        -98.94414036
 C         -2.1984705844       -0.7825816573       -0.0236069377
 C         -2.8890778347       -0.0651328660        0.9812001023
 C         -3.6887126265        1.0780124193        0.5213055816
 C         -3.6889262406        1.3957631745       -0.7865632067
 C         -4.4973910242        2.5018443389       -1.3991619985
 C         -5.8694926896        1.9942360521       -1.8643461998
 C         -6.6171374362        1.1794414608       -0.8089044055
 H         -7.5824187804        0.9008004534       -1.2369452224
 H         -6.0699506427        0.2530302632       -0.6200245059
 C         -6.8406318527        1.9145855772        0.5200740689
 H         -6.7116819963        2.9879554417        0.3763723139
 H         -7.8715884874        1.7522500341        0.8413322251
 C         -5.9399393605        1.4454600805        1.6642083908
 H         -5.9957827222        0.3574415811        1.7520602278
 H         -6.3244988344        1.8688122439        2.5960095872
 C         -4.4627121149        1.8445827379        1.5567539739
 H         -4.3835936855        2.9195585203        1.3811259721
 H         -3.9866454524        1.6179138555        2.5155888555
 H         -6.4737287231        2.8544461872       -2.1580005758
 H         -5.7247575184        1.3635161439       -2.7443838875
 H         -4.6216623412        3.3009799819       -0.6708520552
 H         -3.9518032548        2.8892775866       -2.2612011460
 O         -2.9781784195        0.7088457035       -1.7166848248
 C         -2.2219144398       -0.4003878627       -1.3652567934
 O         -1.6283860423       -0.9400279992       -2.3166227161
 H          0.0603311696        0.2052723383        0.8302374209
 C          0.6658455343       -0.5546445443        0.3501701852
 C          0.0834113685       -1.7732815973        0.0224111587
 C          0.8768582444       -2.7435111244       -0.5750562314
 C          2.2084328333       -2.4865027890       -0.8535178863
 C          2.7773638305       -1.2658094460       -0.5425411045
 C          1.9972085111       -0.2922759732        0.0682499853
 N          2.5655907035        0.9559087320        0.3825922642
 S          3.9749334743        0.9647184505        1.2982335783
 O          4.0464816371       -0.1870899944        2.1674231474
 O          3.9984302111        2.2594169936        1.9435028695
 C          5.2761846036        0.8966021511        0.0853549446
 C          6.2198436588       -0.1102580039        0.1434456537
 C          7.2281152873       -0.1387096337       -0.8075770773
 C          7.2746040239        0.8350046750       -1.7935321589
 C          6.3207450885        1.8411958820       -1.8359552207
 C          5.3108773654        1.8761048375       -0.8877447213
 H          4.5526641682        2.6414049576       -0.8834735260
 H          6.3600476975        2.5967249309       -2.6040665563
 H          8.0588954610        0.8101033240       -2.5334797828
 H          7.9708762526       -0.9195337726       -0.7761893158
 H          6.1395054494       -0.8489677930        0.9248458795
 H          1.9014506088        1.6179321540        0.7574866152
 H          3.8113508698       -1.0599783282       -0.7657075440
 H          2.8108064674       -3.2480082489       -1.3247310743
 H          0.4523340136       -3.7011592721       -0.8271681367
 C         -1.3689474622       -1.9896678549        0.3723266831
 H         -1.4449323307       -2.0488950257        1.4690765810
 C         -1.9553676845       -3.2523867120       -0.2236459386
 C         -1.8037240439       -4.5644411595        0.4845952027
 C         -3.1382137431       -3.8844606188        0.4447058498
 H         -3.9162672617       -4.3061736217       -0.1737536268
 H         -3.5038709407       -3.4191308387        1.3487090449
 H         -1.6679239268       -5.4573605358       -0.1066612925
 H         -1.2655671986       -4.5680371397        1.4205377182
 H         -1.9366021095       -3.2470554970       -1.3076501322
 O         -2.8330775335       -0.3624066920        2.2063313843
