  62
        -98.93886566
 C         -2.4603679071       -0.9485443148        0.3635224880
 C         -2.8400231610        0.2130272303        1.0883758861
 C         -4.2292064816        0.6559872867        0.9358065629
 C         -5.0704299935       -0.0521840767        0.1610470413
 C         -6.5292393815        0.2389547056       -0.0648326305
 C         -6.7988621853        1.2807509292       -1.1589424249
 C         -6.4509599733        2.7215020924       -0.7832125220
 H         -6.8883220612        3.3667744513       -1.5475943264
 H         -6.9254037614        2.9730322859        0.1657876119
 C         -4.9448901239        3.0069882457       -0.6996098106
 H         -4.3937088521        2.2136149293       -1.2099152215
 H         -4.7207338153        3.9389993736       -1.2233142870
 C         -4.4029722988        3.1467338205        0.7231205667
 H         -3.3234907283        3.3091533514        0.6641234318
 H         -4.8494613920        4.0213763623        1.2014756422
 C         -4.6486655625        1.9237467231        1.6165363256
 H         -5.6990701404        1.8717072401        1.9026935630
 H         -4.0434428118        2.0312653018        2.5200697028
 H         -6.2467290771        0.9949444474       -2.0570790933
 H         -7.8645308253        1.2362004199       -1.3949607596
 H         -6.9899430546       -0.7041628486       -0.3663169851
 H         -6.9850345587        0.5654839726        0.8703490539
 O         -4.6761246142       -1.1653857556       -0.5073767826
 C         -3.3689475520       -1.6291884979       -0.4480009257
 O         -3.1766909471       -2.6389765077       -1.1541879110
 O         -2.0516999580        0.8446379465        1.8431644459
 C         -1.0258344604       -1.4118724079        0.5367258319
 C         -0.1134981166       -0.9688814405       -0.5826136276
 C         -0.3826631906       -1.2697199100       -1.9136254354
 C          0.5072532799       -0.9020648798       -2.9064153438
 C          1.6910829336       -0.2577417217       -2.5924558574
 C          1.9683655519        0.0476609986       -1.2654994841
 C          1.0585365339       -0.2940110839       -0.2748318087
 H          1.2826571497       -0.0345393039        0.7498400095
 N          3.1570711249        0.7014635147       -0.9047196833
 S          3.8952025685        0.2293558068        0.5414621386
 O          3.7851885448       -1.2018783304        0.7060584491
 O          3.3707887736        1.0369005559        1.6144631481
 C          5.5897152273        0.6814850668        0.2182277149
 C          5.9998826409        1.9771601558        0.4692415560
 C          7.3112384332        2.3295968539        0.1916632621
 C          8.1850167658        1.3869584448       -0.3297192050
 C          7.7592623429        0.0899554061       -0.5747065979
 C          6.4491234741       -0.2691671764       -0.3001618493
 H          6.0767495652       -1.2677117482       -0.4639394576
 H          8.4416718952       -0.6416454654       -0.9764103076
 H          9.2053331882        1.6638690621       -0.5431387152
 H          7.6469117991        3.3357988561        0.3841714289
 H          5.2880211737        2.6719887468        0.8837113091
 H          3.8189248845        0.7673113141       -1.6659432198
 H          2.3926965854        0.0097879006       -3.3680498195
 H          0.2846608526       -1.1375647582       -3.9363428290
 H         -1.2899752996       -1.7999464512       -2.1587792813
 H         -0.6744174667       -0.9176873942        1.4537269390
 C         -0.8856662944       -2.9126949731        0.7221726550
 C          0.4041721088       -3.4571113651        1.2563628563
 C         -0.8310415663       -3.4853474137        2.1047983163
 H         -1.3095618479       -4.4356908689        2.2882916423
 H         -0.8949077146       -2.7960374099        2.9344582510
 H          0.7713661671       -4.3892132409        0.8545854257
 H          1.1866869479       -2.7532701906        1.5024203583
 H         -1.3962593255       -3.4866190452       -0.0402515337
