  62
        -98.94622134
 C         -1.5864954913       -1.5811992972       -0.2508966993
 C         -1.4471419109       -0.2223515057       -0.6247181174
 C         -2.7001308282        0.5342516690       -0.7419203247
 C         -3.8762136143       -0.0775439462       -0.5146791874
 C         -5.2355270266        0.5622881441       -0.5989114160
 C         -5.6482037667        1.3128592490        0.6751200366
 C         -4.9144157015        2.6318107784        0.9228249884
 H         -4.9755529603        3.2529921636        0.0288140712
 H         -5.4529825396        3.1518541517        1.7176505796
 C         -3.4463275770        2.4726502603        1.3437666892
 H         -3.2393101512        3.1261201747        2.1941671488
 H         -3.2727492643        1.4477801613        1.6798736981
 C         -2.4323209016        2.8129020756        0.2512734208
 H         -1.4296456911        2.6173879791        0.6397178303
 H         -2.5026427420        3.8748249241        0.0064674221
 C         -2.6017076484        1.9998930200       -1.0382104867
 H         -3.4791707720        2.3389635930       -1.5880920186
 H         -1.7139738920        2.1503881743       -1.6566322451
 H         -6.7168057344        1.5259269678        0.5954219976
 H         -5.5056145723        0.6500924922        1.5319226606
 H         -5.2696316074        1.2418623177       -1.4507934610
 H         -5.9506672415       -0.2453146891       -0.7695261680
 O         -3.9667805941       -1.3939846934       -0.1823130395
 C         -2.8290531981       -2.1684331772       -0.0170274940
 O         -3.0534796642       -3.3452933917        0.3336531830
 H          2.2413547054       -1.4328158166       -0.2396479923
 C          1.7973460195       -1.3137606271        0.7335185690
 C          0.5205607479       -1.7825753933        0.9938696792
 C         -0.0052237584       -1.6170679738        2.2736517142
 C          0.7266143570       -0.9915047104        3.2633260738
 C          1.9948308045       -0.5056665404        2.9943629159
 C          2.5294867091       -0.6698114191        1.7227565536
 N          3.8179934486       -0.2037182256        1.4280127020
 S          4.1971278644        0.4045792464       -0.0785766997
 O          4.3150072160       -0.6679107023       -1.0349724752
 O          5.4081105559        1.1668823201        0.1518258000
 C          2.8909319426        1.5235251271       -0.5490206236
 C          2.4005434975        1.4805624584       -1.8362416906
 C          1.4400843817        2.4012051368       -2.2201485948
 C          0.9856080021        3.3422368165       -1.3119363837
 C          1.4830949904        3.3685279785       -0.0188994735
 C          2.4486084822        2.4550334876        0.3682109753
 H          2.8561984719        2.4597207402        1.3664376818
 H          1.1187774285        4.0969044413        0.6884138847
 H          0.2327641325        4.0555184117       -1.6098444015
 H          1.0434513081        2.3732434684       -3.2228175339
 H          2.7719213905        0.7239541971       -2.5092539131
 H          4.2664899404        0.3185477467        2.1658318915
 H          2.5665960682       -0.0084438463        3.7630369352
 H          0.3054706973       -0.8716933544        4.2502126072
 H         -1.0024920763       -1.9846525971        2.4766077188
 C         -0.3444711665       -2.4336122466       -0.0573583455
 H         -0.6910258208       -3.4026867414        0.3290369960
 C          0.3620426177       -2.6568417616       -1.3769430935
 C          1.2850857554       -3.8253046630       -1.5415088296
 C         -0.0415691443       -3.8131966037       -2.2388645354
 H         -0.0614921496       -3.6763314587       -3.3096785669
 H         -0.8218165551       -4.4618303117       -1.8674118100
 H          1.4077438390       -4.4865396951       -0.6968370194
 H          2.1816208658       -3.6946632475       -2.1289510297
 H          0.6213150025       -1.7305824939       -1.8769249532
 O         -0.3414293205        0.3316595638       -0.8473277254
