  62
        -98.93471134
 C         -2.6488698594       -0.9662491014        0.7470002525
 C         -2.9424439502        0.2983094910        1.3198755214
 C         -4.2707348952        0.8548188015        1.0372997361
 C         -5.1281405575        0.1471859841        0.2798264110
 C         -6.4940885567        0.6115550056       -0.1334697166
 C         -6.4454398024        1.3552822366       -1.4754795691
 C         -5.3653918025        2.4350036285       -1.5446909677
 H         -4.3822794838        1.9603500824       -1.4989970949
 H         -5.4450870850        2.9122838160       -2.5238717592
 C         -5.4638150980        3.5024884867       -0.4458747120
 H         -6.4595713385        3.4858153838       -0.0013263960
 H         -5.3281483621        4.4860191654       -0.9006104622
 C         -4.4134733005        3.3740622181        0.6590095710
 H         -3.4191490299        3.2949733312        0.2118975319
 H         -4.4326931588        4.2908619756        1.2543485220
 C         -4.6019046738        2.1975921081        1.6250333233
 H         -3.9079631812        2.3381739572        2.4588967767
 H         -5.6200185941        2.2048471099        2.0196586576
 H         -6.2530019851        0.6280651913       -2.2676966498
 H         -7.4236335610        1.8043970486       -1.6569558175
 H         -6.9001806563        1.2610806337        0.6395699917
 H         -7.1382045894       -0.2633483094       -0.2363652120
 O         -4.8221044127       -1.0672476853       -0.2384675952
 C         -3.5753244003       -1.6522146656       -0.0398512543
 O         -3.4487162273       -2.7529327158       -0.6051643666
 O         -2.1264040260        0.9286663495        2.0455550163
 C         -1.2679419985       -1.5287935392        1.0318296371
 C         -0.2867346043       -1.1056404809       -0.0323539265
 C         -0.5614024255       -1.2918012763       -1.3834539236
 C          0.3535046933       -0.8994926346       -2.3437676341
 C          1.5518195117       -0.3096224229       -1.9814153377
 C          1.8349306132       -0.1155019956       -0.6361364361
 C          0.9180847267       -0.5201035851        0.3273724126
 H          1.1356750123       -0.3576166763        1.3744749235
 N          3.0365729486        0.5088856603       -0.2569793068
 S          4.4525882400        0.0259385148       -1.0436302579
 O          4.5082493169        0.6764620997       -2.3281999848
 O          4.5383016187       -1.4174179005       -1.0614279982
 C          5.6867342056        0.7146673559        0.0401463334
 C          6.0208725068        2.0484306360       -0.0984174071
 C          6.9582969612        2.5961075734        0.7626055036
 C          7.5411755228        1.8062334459        1.7425824879
 C          7.1965018976        0.4688589953        1.8681907668
 C          6.2590658056       -0.0853359158        1.0108120094
 H          5.9680301218       -1.1221447191        1.0663624514
 H          7.6536576869       -0.1429878087        2.6290818506
 H          8.2709140712        2.2348353336        2.4111791840
 H          7.2312799010        3.6345902048        0.6668091259
 H          5.5478750460        2.6208438893       -0.8790948890
 H          3.1645047206        0.5091082631        0.7460618014
 H          2.2710770940       -0.0022569708       -2.7231919262
 H          0.1308901375       -1.0533040620       -3.3893535938
 H         -1.4949604307       -1.7518678038       -1.6713578284
 H         -0.9605241232       -1.0419161008        1.9712754233
 C         -1.2623878596       -3.0298487015        1.2829412287
 C         -0.6877405622       -4.0325709351        0.3330556035
 C          0.0220539195       -3.7301416706        1.6164674837
 H          0.0201175487       -4.4725154144        2.3999584650
 H          0.9335492625       -3.1543362436        1.5530433855
 H         -1.2048262608       -4.9740638955        0.2292142940
 H         -0.2506519181       -3.6765496370       -0.5865263119
 H         -2.1432752083       -3.3465453826        1.8322734480
