  62
        -98.93875258
 C          1.8717801426        0.6728067662        0.8673669935
 C          2.2121196397       -0.7035732272        0.7998758163
 C          3.6370514897       -1.0182244715        0.6572800596
 C          4.5370467188       -0.0192773916        0.6234595621
 C          6.0298670994       -0.1732740183        0.5135025144
 C          6.5359582316       -0.3448546760       -0.9251980044
 C          6.2338834102       -1.7015435328       -1.5627918777
 H          6.8277923517       -1.7650838369       -2.4767930874
 H          6.5730395433       -2.4970575685       -0.8985548585
 C          4.7563653692       -1.9194149374       -1.9181688930
 H          4.2373052265       -0.9580712220       -1.9266377364
 H          4.6815098735       -2.3310130744       -2.9272592367
 C          4.0127678234       -2.8736374490       -0.9834580963
 H          4.4409969690       -3.8750796770       -1.0661790936
 H          2.9697272814       -2.9245293185       -1.3060528285
 C          4.0315742100       -2.4547669814        0.4924662514
 H          3.3013772939       -3.0633030411        1.0312959361
 H          5.0183603419       -2.6297436066        0.9207984699
 H          7.6198141401       -0.2086534604       -0.9076153080
 H          6.1113147321        0.4505161865       -1.5421129194
 H          6.3562072938       -1.0197137799        1.1185074952
 H          6.4673520408        0.7385454236        0.9258270824
 O          4.1767049994        1.2869098221        0.7087282789
 C          2.8422467880        1.6741371738        0.8030392612
 O          2.6874711761        2.9080726201        0.8246362899
 O          1.3583609065       -1.6280404776        0.8679568086
 C          0.3950399626        0.9918111046        1.0061520270
 C         -0.2740807114        1.1741832105       -0.3320391463
 C          0.3123553367        1.9162928452       -1.3515949166
 C         -0.3416436202        2.0842705121       -2.5588050286
 C         -1.5983783899        1.5416306710       -2.7623649729
 C         -2.1945445370        0.8010772516       -1.7489553220
 C         -1.5197485134        0.6052829775       -0.5522515867
 H         -1.9759908360        0.0058027501        0.2201075394
 N         -3.4678107693        0.2387684431       -1.9128148497
 S         -4.5514020425        0.2902431877       -0.6340237253
 O         -5.8544577803        0.2073698460       -1.2574028585
 O         -4.3164122974        1.4396952626        0.2070083396
 C         -4.2443971279       -1.2132608228        0.2666133670
 C         -3.9787217127       -1.1602559178        1.6204271810
 C         -3.7553485332       -2.3436879715        2.3063465202
 C         -3.8031752850       -3.5525891912        1.6297311594
 C         -4.0747159155       -3.5888636306        0.2702107536
 C         -4.2991278236       -2.4094612761       -0.4209980727
 H         -4.5160586502       -2.3968387110       -1.4760746905
 H         -4.1096679619       -4.5317263222       -0.2514374690
 H         -3.6262064943       -4.4715204377        2.1660308917
 H         -3.5417705076       -2.3167118888        3.3629305234
 H         -3.9443029148       -0.1982809813        2.1080147983
 H         -3.9145607818        0.4477270799       -2.7937637187
 H         -2.1142464443        1.6897374106       -3.6990232255
 H          0.1253216157        2.6591348050       -3.3445930132
 H          1.2783866275        2.3689449149       -1.1847753135
 H         -0.0421173204        0.0895217784        1.4640689156
 C          0.1096841182        2.1533460372        1.9480557571
 C         -0.2894602539        3.5175979869        1.4824666690
 C         -1.2940209864        2.6392920250        2.1628586102
 H         -1.6008097887        2.8912788803        3.1671495057
 H         -2.0832097991        2.2191949482        1.5553843635
 H          0.1132929721        4.3666277804        2.0132261592
 H         -0.3929216785        3.6826677859        0.4215317573
 H          0.7473237429        2.1192468019        2.8263668465
