  62
        -98.93866283
 C          2.0505837767        1.2095546095       -0.2662553990
 C          3.1204158185        1.2242882123        0.6658589317
 C          4.3362674419        0.4777257270        0.3031854350
 C          4.3781544139       -0.1585979748       -0.8797759427
 C          5.4832062872       -1.0236599073       -1.4192183699
 C          5.2280281725       -2.5018358275       -1.0783662377
 C          5.7627359633       -2.9518333994        0.2807674675
 H          5.4030959801       -3.9695044784        0.4499678435
 H          6.8533261086       -2.9923453356        0.2414555930
 C          5.3482524928       -2.0807161201        1.4696468591
 H          4.2913131985       -1.8205070612        1.3848578742
 H          5.4603495818       -2.6781445518        2.3765786046
 C          6.1929047377       -0.8051552326        1.6074235887
 H          6.5698869407       -0.7306199185        2.6295121712
 H          7.0668270116       -0.8855990754        0.9612099467
 C          5.4511247624        0.5070211801        1.3126666447
 H          6.1783771372        1.2668864397        1.0076609019
 H          4.9829499700        0.8743237079        2.2312133714
 H          4.1496368020       -2.6756415076       -1.1252801689
 H          5.6918994119       -3.1240995215       -1.8464608129
 H          5.4668022376       -0.9095120364       -2.5051481128
 H          6.4486784316       -0.6948097813       -1.0466479250
 O          3.3379949677       -0.1353450695       -1.7545924169
 C          2.1540059161        0.5270293455       -1.4777525666
 O          1.3068143148        0.4217361868       -2.3885333463
 O          3.0593336348        1.8390469907        1.7642976182
 C          0.7922506293        1.9643592976        0.1313737557
 C         -0.2552313035        1.0172322699        0.6676630085
 C         -0.6740283329        1.0921012400        1.9909343664
 C         -1.6222624466        0.2109818115        2.4815837889
 C         -2.1713515963       -0.7607841096        1.6647828255
 C         -1.7629427102       -0.8394105912        0.3388621969
 C         -0.8205655307        0.0522209351       -0.1540028495
 H         -0.4986860054       -0.0225423285       -1.1819666547
 N         -2.3049307988       -1.8234768637       -0.5015492614
 S         -3.9386408804       -2.1560164257       -0.4076487085
 O         -4.1894930204       -3.0444856350        0.7008104844
 O         -4.3003560703       -2.6622442599       -1.7130464132
 C         -4.7308229248       -0.5855769679       -0.1060752488
 C         -5.5258973342       -0.4213195665        1.0098278826
 C         -6.1215115357        0.8096787756        1.2339180116
 C         -5.9096256595        1.8506759275        0.3437605662
 C         -5.1097999289        1.6691405073       -0.7743281123
 C         -4.5134672417        0.4401959864       -1.0046155950
 H         -3.8888012584        0.2680130008       -1.8666625102
 H         -4.9464929627        2.4797622151       -1.4660949630
 H         -6.3700582254        2.8098421585        0.5204377989
 H         -6.7449854548        0.9527926778        2.1016716791
 H         -5.6603489495       -1.2570655464        1.6772032937
 H         -1.9784573641       -1.7755928728       -1.4550403687
 H         -2.8937403845       -1.4691720170        2.0367262698
 H         -1.9335188070        0.2770346244        3.5127808197
 H         -0.2361533782        1.8353578816        2.6408334139
 H          1.1022467612        2.6193279481        0.9563204453
 C          0.2306374410        2.8287442222       -0.9806397921
 C         -0.6713142508        3.9715885150       -0.6272670246
 C          0.7164365898        4.2383369676       -1.1264219904
 H          0.8425656342        4.6386971277       -2.1212054663
 H          1.4557595669        4.5875177142       -0.4202984285
 H         -1.5013225787        4.1924635500       -1.2801545897
 H         -0.8749098146        4.1429399538        0.4186834095
 H          0.0205581158        2.2811395499       -1.8898567078
