  62
        -98.94294633
 C          2.4888464018        0.8626847618        0.4974042965
 C          2.5470979123       -0.3167403039       -0.2833544478
 C          3.6966241776       -1.1928189209       -0.0236583830
 C          4.5928857968       -0.8601153473        0.9230063997
 C          5.8033657083       -1.6620918060        1.3178659799
 C          7.0275525301       -1.4289197513        0.4218285723
 C          6.9382635410       -2.0430698460       -0.9757723989
 H          6.6724190652       -3.0972615038       -0.8918813071
 H          7.9380671551       -1.9930243233       -1.4116733089
 C          5.9538182166       -1.3351030779       -1.9171199831
 H          6.4254745440       -1.1845360447       -2.8908709276
 H          5.7175728660       -0.3451768753       -1.5199265647
 C          4.6495315645       -2.0952409522       -2.1579649961
 H          4.8622412321       -3.0328606542       -2.6763026120
 H          4.0137959870       -1.4881349028       -2.8074592183
 C          3.8582958089       -2.4110405155       -0.8819089753
 H          4.3478369498       -3.2085404080       -0.3234744293
 H          2.8593219373       -2.7465002147       -1.1711294366
 H          7.8908122814       -1.8633076171        0.9312852516
 H          7.1987374172       -0.3532668490        0.3370851176
 H          6.0590493310       -1.3574963885        2.3350266831
 H          5.5533064768       -2.7233447849        1.3254863652
 O          4.4854628593        0.2721240729        1.6691153750
 C          3.4453123059        1.1643000725        1.4665078738
 O          3.4770616582        2.1690478450        2.2063222217
 H         -0.8827823336        1.6554160328       -1.3240450110
 C         -1.0037835347        1.1594866956       -0.3736138214
 C          0.0313356186        1.1634645189        0.5466449340
 C         -0.1629986366        0.5211787749        1.7671847396
 C         -1.3537204292       -0.1196767785        2.0475100764
 C         -2.3786201643       -0.1377698999        1.1168917175
 C         -2.2003691272        0.5074512461       -0.0980579648
 N         -3.2297988371        0.4836250351       -1.0518451970
 S         -4.7980661385        0.8293685427       -0.5735060597
 O         -5.4671101462        1.2786624182       -1.7749072950
 O         -4.8205309622        1.7372577241        0.5499949357
 C         -5.4667528677       -0.7504658013       -0.0962378714
 C         -6.0627218060       -0.8982917554        1.1408556744
 C         -6.5923009171       -2.1317314812        1.4870559766
 C         -6.5178030391       -3.1896806453        0.5941408910
 C         -5.9178959686       -3.0242254947       -0.6454600203
 C         -5.3879019638       -1.7934313146       -0.9981647043
 H         -4.9164575899       -1.6248774724       -1.9520115275
 H         -5.8613917899       -3.8495143965       -1.3369416975
 H         -6.9298457739       -4.1488188819        0.8655701514
 H         -7.0592627898       -2.2620673831        2.4501230616
 H         -6.0926672629       -0.0493947763        1.8053611381
 H         -2.9990624798        0.9421591846       -1.9209749839
 H         -3.3079376106       -0.6415586601        1.3266771368
 H         -1.4862518283       -0.6145399843        2.9977781921
 H          0.6393198155        0.5314658568        2.4929995862
 C          1.3523649935        1.8490274782        0.2949597022
 H          1.4818915803        2.6248771658        1.0635612990
 C          1.4623573982        2.4948253321       -1.0703332366
 C          0.8792980660        3.8542950759       -1.3098729585
 C          2.3658759304        3.6774809075       -1.2395070303
 H          2.9397812905        3.7628353529       -2.1500947668
 H          2.8847837070        4.0344179804       -0.3616566414
 H          0.3857986714        4.3399865161       -0.4813644793
 H          0.4349313859        4.0653343631       -2.2711989851
 H          1.4305310866        1.7726270295       -1.8782573842
 O          1.6886685128       -0.6245835887       -1.1501354291
