  62
        -98.94073758
 C          1.7330631509        0.3296062305        0.4987894005
 C          2.9292475909        0.4551456598        1.2504121107
 C          4.1527152010        0.7098175200        0.4823733110
 C          4.0906346112        0.7974399408       -0.8585384689
 C          5.2451727714        1.0760140711       -1.7824491386
 C          6.0681739712       -0.1670813189       -2.1473022192
 C          6.9511314909       -0.7154702097       -1.0256095494
 H          7.6296789109       -1.4416280496       -1.4776895897
 H          7.5621621910        0.0906249799       -0.6182588288
 C          6.1787287606       -1.4025560202        0.1092417101
 H          5.1675114706       -1.6391514798       -0.2301288501
 H          6.6620446704       -2.3502043904        0.3576152397
 C          6.0897117906       -0.5878425409        1.3997453806
 H          5.4904110304       -1.1505208812        2.1202408602
 H          7.0889596906       -0.4591268313        1.8216854508
 C          5.4491004609        0.7958840293        1.2299044813
 H          6.1381185211        1.4694478595        0.7206318517
 H          5.2348428009        1.1980292188        2.2232136815
 H          5.3866616411       -0.9491527986       -2.4900060897
 H          6.7119903714        0.1038664214       -2.9872625390
 H          5.8975891415        1.8276842907       -1.3370955581
 H          4.8168322816        1.4857966117       -2.6996462084
 O          2.9276021713        0.6537854814       -1.5453657092
 C          1.7260784111        0.3935696213       -0.8956833395
 O          0.7607073812        0.2487928919       -1.6672495697
 O          2.9716130107        0.3557792891        2.5057313707
 C          0.4516999108        0.0434024203        1.2603344201
 C         -0.2987147694       -1.0950288492        0.6167687794
 C          0.3527919104       -2.3152017192        0.4495358888
 C         -0.2868925597       -3.3833779588       -0.1461282619
 C         -1.6017503296       -3.2681514783       -0.5639156920
 C         -2.2644000894       -2.0607288382       -0.3917694714
 C         -1.6106613193       -0.9818942087        0.1879664293
 H         -2.1374062691       -0.0480216386        0.2855394497
 N         -3.5956206493       -1.9013449677       -0.8056721015
 S         -4.6658252693       -1.0876948681        0.1897072188
 O         -4.3435191795       -1.2796091789        1.5849840687
 O         -5.9741473493       -1.5475711876       -0.2266454917
 C         -4.5024622989        0.6300688221       -0.2467379702
 C         -4.4932924689        1.5799851216        0.7553278303
 C         -4.4195053385        2.9201565717        0.4090334811
 C         -4.3573161483        3.2845888825       -0.9273297587
 C         -4.3665114883        2.3177615830       -1.9212915893
 C         -4.4439248686        0.9766550929       -1.5818157300
 H         -4.4527640087        0.1996941433       -2.3277124605
 H         -4.3130066881        2.6051853536       -2.9589696091
 H         -4.2974760680        4.3278627326       -1.1948151481
 H         -4.4095348885        3.6729703613        1.1813963615
 H         -4.5333333491        1.2514981310        1.7818172901
 H         -4.0168481194       -2.7235989974       -1.2127125921
 H         -2.1068399697       -4.1038144379       -1.0245013126
 H          0.2365418501       -4.3185238988       -0.2790851323
 H          1.3774528804       -2.4093993096        0.7840347989
 H          0.7955158306       -0.3014003303        2.2508735900
 C         -0.4153075290        1.2687468303        1.5081292107
 C          0.1854806312        2.6394200602        1.5870766916
 C         -0.7006775187        2.2755677110        0.4356081212
 H         -1.6894799286        2.7079489612        0.3902265313
 H         -0.2518161786        2.1123158814       -0.5311552088
 H         -0.1922598087        3.3209621798        2.3342429319
 H          1.2468351113        2.7318746301        1.4078263118
 H         -1.2217521092        1.0571037601        2.2047727005
