  62
        -98.93820720
 C         -2.4823474710       -0.6758006797        0.0037202493
 C         -2.9089608729        0.4619254893        0.7363367719
 C         -4.0564602228        1.1989101457        0.1940075422
 C         -4.6145139566        0.7839828608       -0.9576108111
 C         -5.8205815705        1.4044439596       -1.5998514063
 C         -7.1133768264        0.7291499735       -1.1211390384
 C         -7.2106372143        0.5886213710        0.3979973174
 H         -8.1750862230        0.1271287256        0.6210235926
 H         -6.4371722636       -0.1017439188        0.7424584793
 C         -7.0866957825        1.9112966559        1.1672360990
 H         -7.2669177345        2.7499040832        0.4937473514
 H         -7.8603235300        1.9420347961        1.9374307547
 C         -5.7453579345        2.1100866916        1.8757046658
 H         -5.8440003903        2.9585557010        2.5581218928
 H         -5.5166336632        1.2291971702        2.4810532377
 C         -4.5441084026        2.3934099809        0.9646460841
 H         -4.7813063306        3.2175073603        0.2887800937
 H         -3.7090425249        2.7000278422        1.6012470691
 H         -7.1658495671       -0.2693926359       -1.5611739290
 H         -7.9622262873        1.3078641120       -1.4898005051
 H         -5.8443800101        2.4667560959       -1.3648010184
 H         -5.7360068008        1.2818968780       -2.6808659350
 O         -4.1631143519       -0.2910612641       -1.6485920377
 C         -3.0945306438       -1.0553956578       -1.1919114020
 O         -2.8140909620       -2.0116946679       -1.9358175339
 H          0.8321422857       -0.5974967707        1.9612358607
 C          1.0063661730       -0.5773666340        0.8935898908
 C         -0.0051858504       -0.9752840595        0.0320182778
 C          0.2275411085       -0.9236169945       -1.3390018401
 C          1.4485890331       -0.4930036743       -1.8251343472
 C          2.4556767165       -0.0978913284       -0.9614687322
 C          2.2312834093       -0.1367278989        0.4077168574
 N          3.2409910762        0.2846877379        1.2880438066
 S          4.7865131909       -0.3408169062        1.0945039379
 O          4.7486706334       -1.6693010504        0.5289871777
 O          5.4084799874       -0.2125011414        2.3940628064
 C          5.5700150766        0.7854020680       -0.0396159355
 C          5.5571530871        2.1329969438        0.2627406414
 C          6.1745433515        3.0187207130       -0.6058466583
 C          6.7937266090        2.5445826858       -1.7529848557
 C          6.8011049298        1.1882612103       -2.0401443621
 C          6.1842187245        0.2968997940       -1.1760803387
 H          6.1587991101       -0.7650886115       -1.3617994904
 H          7.2830517369        0.8215411033       -2.9321965056
 H          7.2730868973        3.2364648635       -2.4273900696
 H          6.1705469251        4.0743248896       -0.3866172651
 H          5.0670846431        2.4613249616        1.1641386615
 H          2.9671499050        0.2785278302        2.2599264057
 H          3.4075003341        0.2386729176       -1.3387007102
 H          1.6181492935       -0.4626651662       -2.8908345379
 H         -0.5566130410       -1.2301169195       -2.0147874892
 C         -1.3200148094       -1.4581354819        0.5887169705
 H         -1.3319625635       -1.2060154958        1.6613983039
 C         -1.4947601519       -2.9670533311        0.4831619226
 C         -0.6541599399       -3.8507030158       -0.3834396203
 C         -0.4803458466       -3.8825053858        1.1034915441
 H         -0.8252802370       -4.7461867763        1.6514953939
 H          0.4147560466       -3.4319332867        1.5071981169
 H         -1.1428461399       -4.6806187511       -0.8703666802
 H          0.1262300242       -3.3998680437       -0.9755061264
 H         -2.5351801706       -3.2580961474        0.5885623688
 O         -2.3558018754        0.8363211634        1.8060631689
