  62
        -98.94951022
 C         -1.5622127508       -0.9050719439       -0.7159840990
 C         -1.3889746544       -1.7166656028        0.4305586615
 C         -0.3259597794       -2.7290706160        0.3441241575
 C          0.4311667099       -2.7987031714       -0.7652530850
 C          1.5448859905       -3.7812522107       -0.9877215073
 C          2.9053557669       -3.2329809587       -0.5378267972
 C          2.9057159373       -2.6368171278        0.8700085875
 H          3.9320088556       -2.3358196320        1.0956532047
 H          2.3013182445       -1.7267978992        0.8908734953
 C          2.4001253089       -3.5850656543        1.9655316117
 H          3.0664345604       -3.5059292163        2.8272127105
 H          2.4404799543       -4.6180400388        1.6162774726
 C          0.9888557672       -3.2665623789        2.4637229643
 H          0.8290123829       -3.8013225498        3.4042825417
 H          0.9147845398       -2.1959884219        2.6750408136
 C         -0.1549963393       -3.6521978778        1.5168662515
 H         -0.0234551854       -4.6839060209        1.1816894324
 H         -1.0894558688       -3.5906076421        2.0826598074
 H          3.2205704091       -2.4565722615       -1.2391670878
 H          3.6332791095       -4.0455811287       -0.5863677762
 H          1.3183473540       -4.6977973651       -0.4458678788
 H          1.5912823487       -4.0049506256       -2.0553215645
 O          0.2721271591       -1.9625636374       -1.8238245500
 C         -0.7203345245       -0.9942925644       -1.8232564519
 O         -0.7511810434       -0.2889524179       -2.8518757307
 H         -0.3134397289        1.3001268065       -0.2367874103
 C         -1.0567325063        1.6411648305        0.4690627290
 C         -2.3572609735        1.1658570599        0.3606771652
 C         -3.3095377294        1.6276234185        1.2590084465
 C         -2.9505037681        2.5164860888        2.2583671904
 C         -1.6433562183        2.9473179104        2.3926446502
 C         -0.6860751591        2.5005111009        1.4884823408
 N          0.6527884209        2.9115766552        1.5726767862
 S          1.8591780576        1.8187527952        1.1761630696
 O          1.4965692699        0.4654988417        1.5238812387
 O          3.0428654156        2.3428495382        1.8271518992
 C          2.0537581324        1.9907623262       -0.5841509878
 C          2.2107367758        0.8613490493       -1.3612625842
 C          2.3769016986        1.0019895694       -2.7292176637
 C          2.3885009131        2.2678683060       -3.2929180937
 C          2.2388700009        3.3945085689       -2.4981663139
 C          2.0712325188        3.2591217806       -1.1296448390
 H          1.9470868292        4.1102934301       -0.4812095869
 H          2.2472057061        4.3767800329       -2.9426778681
 H          2.5101601427        2.3736774631       -4.3593527482
 H          2.4771343475        0.1231893388       -3.3458737403
 H          2.1775167372       -0.1072419908       -0.8871985429
 H          0.8854410992        3.4562689785        2.3903163823
 H         -1.3617709173        3.6179908387        3.1901245407
 H         -3.6974996983        2.8646051892        2.9556681449
 H         -4.3279602011        1.2828546561        1.1869090158
 C         -2.6384087911        0.1673609028       -0.7357750685
 H         -2.5338694894        0.6837078481       -1.7015137179
 C         -4.0168917316       -0.4531457963       -0.6584723273
 C         -5.1924912092        0.2462977597       -1.2701999105
 C         -4.6391181831       -0.9897989858       -1.9112763732
 H         -5.2101734853       -1.9041143131       -1.8524383963
 H         -4.0764864941       -0.8850277961       -2.8276888966
 H         -6.1485074514        0.1793473560       -0.7732424775
 H         -5.0128697993        1.1923247526       -1.7580040311
 H         -4.1705089242       -1.0137895276        0.2562235233
 O         -2.1006074087       -1.6207982367        1.4649088950
