  62
        -98.93161590
 C          2.2898147858        0.6048340327        0.6982877236
 C          3.1292459183        0.7853808291       -0.4279062454
 C          4.1466545461       -0.2583160485       -0.6404595540
 C          4.1912896254       -1.3306651247        0.1685084848
 C          5.1184285130       -2.5117801013        0.0525401608
 C          6.6175550871       -2.2267902484        0.2676025407
 C          7.4013021657       -1.9546683800       -1.0223948154
 H          6.8764879824       -2.4219398599       -1.8565408365
 H          8.3746817715       -2.4442910099       -0.9510208613
 C          7.6651150473       -0.4808081652       -1.3450953515
 H          7.9952176322       -0.4201484259       -2.3843513146
 H          8.4839970296       -0.1198250845       -0.7186028938
 C          6.4831256394        0.4678006873       -1.1448152604
 H          6.7397247138        1.4306909469       -1.5908878457
 H          6.3370964327        0.6511644946       -0.0775546632
 C          5.1497039337       -0.0316183054       -1.7343105958
 H          5.3004195330       -0.9423524531       -2.3117628240
 H          4.7252983544        0.7284367477       -2.3932115114
 H          7.0415657190       -3.1129446238        0.7426580642
 H          6.7337336324       -1.3993960678        0.9671536520
 H          4.9746234595       -2.9749897014       -0.9263482502
 H          4.7783341828       -3.2216615396        0.8094587490
 O          3.3271077759       -1.4932370289        1.2092699084
 C          2.3771247964       -0.5331765642        1.5044139760
 O          1.6737752694       -0.7981226909        2.5017909469
 O          3.0509115274        1.7529030147       -1.2261728169
 C          1.2062139131        1.5954192278        1.0960736416
 C         -0.0732121256        1.2270859961        0.3904556320
 C         -0.1538333546        1.2234084962       -0.9994078099
 C         -1.3253045304        0.8469221068       -1.6293010414
 C         -2.4325855119        0.4595543004       -0.8933269348
 C         -2.3533224886        0.4345345276        0.4919333841
 C         -1.1795495647        0.8268707798        1.1237558249
 H         -1.1161794410        0.7930815009        2.2032076720
 N         -3.4689468334        0.0362965927        1.2464489423
 S         -4.3052966015       -1.3442832818        0.7848002468
 O         -4.9511134681       -1.8112969076        1.9920894087
 O         -3.4473856420       -2.2876823044        0.1062039529
 C         -5.5480879804       -0.7288997665       -0.3333861966
 C         -5.6871002142       -1.2933944159       -1.5861189723
 C         -6.6680615995       -0.8060308628       -2.4359992643
 C         -7.4885909405        0.2310547899       -2.0198848608
 C         -7.3380733580        0.7851783505       -0.7572790244
 C         -6.3606812353        0.3016018506        0.0975654246
 H         -6.2137212039        0.7021349532        1.0865833697
 H         -7.9782714752        1.5914137089       -0.4372686720
 H         -8.2500182765        0.6094864810       -2.6834244708
 H         -6.7868251293       -1.2364529163       -3.4173920713
 H         -5.0221637809       -2.0940766644       -1.8691536794
 H         -3.3077523067        0.0398026581        2.2434443832
 H         -3.3449037464        0.1589979579       -1.3819690617
 H         -1.3784325320        0.8524998906       -2.7074671026
 H          0.7148152715        1.5111816111       -1.5723640339
 H          1.0497222484        1.4261693211        2.1730708109
 C          1.6219813559        3.0494688095        0.9167807536
 C          0.8829390939        4.0250523010        0.0545878732
 C          0.7962091989        4.1337501698        1.5449017495
 H          1.3003633938        4.9492662101        2.0409498846
 H         -0.1311638013        3.8379069938        2.0128391105
 H          1.4681999270        4.7525063603       -0.4868500851
 H          0.0115061093        3.6816444545       -0.4797754175
 H          2.6978692496        3.1757400975        0.9633507605
