  62
        -98.94342438
 C          1.8319878704        0.5631593397        0.2651373506
 C          2.9541673803        0.6768794986        1.1191492109
 C          4.2597925104        0.7774416493        0.4540976712
 C          4.3142332806        0.7724865509       -0.8906632788
 C          5.5804977107        0.8071445017       -1.6955272186
 C          6.0820634707       -0.6113206980       -2.0008536502
 C          6.1394568004       -1.5236622894       -0.7755382512
 H          5.1236011004       -1.6996119598       -0.4140966416
 H          6.5334476404       -2.4873374291       -1.1055853223
 C          7.0007659803       -0.9868033708        0.3762072695
 H          7.6243126002       -1.7991761913        0.7555421287
 H          7.6709053604       -0.2098210604        0.0066706305
 C          6.2046853502       -0.4448144422        1.5648496101
 H          5.4684902101       -1.1877215725        1.8826495091
 H          6.8968864901       -0.2948222632        2.3977055703
 C          5.4766500603        0.8846847882        1.3296028715
 H          5.1172689702        1.2418206171        2.2992254519
 H          6.1762236204        1.6216393186        0.9301551025
 H          5.4111383007       -1.0652215971       -2.7338205708
 H          7.0749086707       -0.5378713775       -2.4483243099
 H          5.3762195109        1.3208548728       -2.6362896880
 H          6.3392019807        1.3617908110       -1.1469223678
 O          3.2121221807        0.6840614619       -1.6780824191
 C          1.9448700506        0.5668946513       -1.1253772594
 O          1.0253062008        0.4785331624       -1.9597271296
 O          2.8679709001        0.6875980071        2.3773782609
 C          0.4511656903        0.4406209091        0.8804166603
 C         -0.2295874097       -0.8310207003        0.4374378987
 C          0.5091402702       -2.0083796503        0.3504462674
 C         -0.0841808598       -3.1889479698       -0.0504477341
 C         -1.4344688998       -3.2281420893       -0.3505701043
 C         -2.1864782797       -2.0653513094       -0.2479253031
 C         -1.5827070597       -0.8760542999        0.1386356884
 H         -2.1849397296        0.0142481701        0.2103831994
 N         -3.5564694397       -2.0689522989       -0.5480320733
 S         -4.6225162797       -1.2138066800        0.4165888676
 O         -4.1805310999       -1.1695349616        1.7906969577
 O         -5.9069386497       -1.8405865596        0.1842762866
 C         -4.6588965395        0.4268903908       -0.2727847405
 C         -4.8024320495        1.5036055199        0.5796221407
 C         -4.8861864494        2.7789515905        0.0425871422
 C         -4.8247049691        2.9538920421       -1.3311123876
 C         -4.6814702191        1.8616547831       -2.1734901388
 C         -4.6024820293        0.5837436924       -1.6434821703
 H         -4.4881111593       -0.2853511868       -2.2695528213
 H         -4.6301724189        2.0020972143       -3.2412159887
 H         -4.8867095290        3.9470794626       -1.7472670664
 H         -4.9970867794        3.6292759497        0.6968619432
 H         -4.8335541097        1.3231125386        1.6423488905
 H         -3.9319824397       -2.9685519786       -0.8107593344
 H         -1.9012774998       -4.1504672689       -0.6617025655
 H          0.5066378901       -4.0898541597       -0.1230342151
 H          1.5624046202       -1.9839245207        0.5953628176
 H          0.6188126702        0.3729303678        1.9665486702
 C         -0.3584055595        1.6884306095        0.5928388716
 C         -1.3787904296        2.1783521984        1.5748688720
 C         -0.0902454195        2.9224870085        1.3994339431
 H         -0.1101049094        3.8794852391        0.9004359842
 H          0.6547298103        2.8511126475        2.1785374931
 H         -2.2836664595        2.6257177989        1.1922488324
 H         -1.5194266198        1.6051850074        2.4792691413
 H         -0.5626842294        1.8145351407       -0.4646817083
