  62
        -98.94437759
 C         -2.3236125836       -1.1319371446        0.2484934482
 C         -2.3490509504        0.1038604889       -0.4427136365
 C         -3.2914829362        1.1050399904        0.0751809718
 C         -4.0335108640        0.8334430408        1.1634185065
 C         -5.0175383159        1.7613775633        1.8224225048
 C         -6.4084905970        1.7598041561        1.1733888006
 C         -6.4938875402        2.4559276389       -0.1855006292
 H         -7.5539444327        2.5724400868       -0.4193827028
 H         -6.0658312546        3.4558590994       -0.1078374414
 C         -5.8172414278        1.6920883319       -1.3322442775
 H         -5.6589807394        0.6530129625       -1.0347165947
 H         -6.4786670599        1.6792883037       -2.2014012156
 C         -4.4833553157        2.2836849445       -1.7882507340
 H         -4.6475352390        3.2775903093       -2.2105941572
 H         -4.0767026939        1.6458504664       -2.5771845670
 C         -3.4295916375        2.3936886356       -0.6783475607
 H         -2.4633706246        2.6143535798       -1.1396259796
 H         -3.6826984111        3.2067636639        0.0019315866
 H         -6.7465143347        0.7257412116        1.0750082643
 H         -7.0884368566        2.2680042056        1.8609073710
 H         -5.1190649007        1.4223186141        2.8555971290
 H         -4.6174172808        2.7757486426        1.8278116018
 O         -3.9542369424       -0.3532572937        1.8213396577
 C         -3.1136666599       -1.3596183859        1.3792197805
 O         -3.1572560188       -2.3990687763        2.0669013880
 H          0.4484637158       -0.8989796443       -1.6490715995
 C          0.8206081044       -1.1674438528       -0.6730841540
 C          0.0129604304       -1.8821449476        0.1979546988
 C          0.5008392866       -2.1790580853        1.4671848953
 C          1.7666553673       -1.7744297851        1.8483530489
 C          2.5676229929       -1.0554312201        0.9778731503
 C          2.0818949166       -0.7379754852       -0.2828131527
 N          2.8784820582        0.0123218330       -1.1668812809
 S          3.5561613800        1.4344937746       -0.5825697188
 O          2.7749906248        1.9987996697        0.4940889672
 O          3.7504524355        2.2711234042       -1.7469976771
 C          5.1500958443        0.9183008129        0.0237945528
 C          5.5139197187        1.1914697877        1.3277636752
 C          6.7625780212        0.7871590377        1.7743003312
 C          7.6213123536        0.1217729834        0.9129394187
 C          7.2421107753       -0.1423994947       -0.3948292046
 C          5.9957916261        0.2598151260       -0.8474380728
 H          5.6643574190        0.0782270122       -1.8560758535
 H          7.9127247033       -0.6598962749       -1.0617608192
 H          8.5918238098       -0.1924851848        1.2631369514
 H          7.0588774652        0.9922996333        2.7904981331
 H          4.8109974913        1.7073470949        1.9627027996
 H          2.4273829441        0.1823315180       -2.0550394030
 H          3.5507645758       -0.7263860166        1.2724343494
 H          2.1332545716       -2.0168232403        2.8342839686
 H         -0.1343577548       -2.7167607983        2.1573578092
 C         -1.4002628083       -2.2688323309       -0.1653219648
 H         -1.6861677848       -3.1264855687        0.4575867374
 C         -1.5710990150       -2.6500025401       -1.6212378732
 C         -1.0070475084       -3.9515550819       -2.1035912133
 C         -2.4901082018       -3.7777372979       -1.9782757554
 H         -3.0791165148       -3.6955630992       -2.8795354295
 H         -2.9982702434       -4.2837685775       -1.1702864027
 H         -0.5756322043       -3.9926612324       -3.0919442832
 H         -0.5073586780       -4.5755455959       -1.3781803757
 H         -1.5455585420       -1.8049288886       -2.2970313400
 O         -1.6356568053        0.3743670989       -1.4452452550
