  62
        -98.94526962
 C          2.4794271899        1.1794430297       -0.0325437703
 C          3.2038109298        0.3774289196        0.8805773296
 C          3.8056032398       -0.8435517704        0.3296220396
 C          3.6329149698       -1.1307444903       -0.9737610405
 C          4.1224717498       -2.3793387403       -1.6473172706
 C          3.0550625597       -3.4821788802       -1.6035616807
 C          2.4572974496       -3.7096154303       -0.2147123208
 H          1.8895007396       -2.8221701903        0.0777094592
 H          1.7385090795       -4.5279967202       -0.2995167409
 C          3.4879062295       -4.0406595005        0.8743465592
 H          3.1102348994       -4.8746655805        1.4695428491
 H          4.4203105795       -4.3671035505        0.4126522993
 C          3.7776566495       -2.8948846206        1.8457587194
 H          4.3454336194       -3.2989658107        2.6879946394
 H          2.8360720595       -2.5065224205        2.2431334693
 C          4.5808522996       -1.7202740606        1.2727390095
 H          5.4880299196       -2.0936784006        0.7941886795
 H          4.8711226496       -1.0780381207        2.1093640496
 H          3.5007817097       -4.4104417302       -1.9654672208
 H          2.2428777898       -3.2071210101       -2.2811038008
 H          4.3455735799       -2.1442747902       -2.6892129305
 H          5.0325180997       -2.7196784404       -1.1573244905
 O          2.9361076399       -0.3333668202       -1.8226572105
 C          2.3248423600        0.8291716498       -1.3743780504
 O          1.6957469801        1.4488730300       -2.2517652504
 O          3.3305571998        0.6627337394        2.1027976097
 C          1.7829503000        2.4285100397        0.4798220297
 C          0.2923685000        2.2571252598        0.3163346196
 C         -0.5274777399        3.1725021699       -0.3285487204
 C         -1.8800282599        2.9160483201       -0.4789035005
 C         -2.4430312300        1.7524595901        0.0113488594
 C         -1.6332328601        0.8340061899        0.6672886694
 C         -0.2822873801        1.0959438498        0.8206458495
 H          0.3489297598        0.3754392897        1.3278937994
 N         -2.1993208603       -0.3556388801        1.1713574392
 S         -2.9258893302       -1.3655096799        0.0362788791
 O         -2.8776717404       -2.6887512700        0.6206622089
 O         -2.3228829502       -1.2169737698       -1.2686928109
 C         -4.6152971902       -0.8060669498        0.0038939190
 C         -5.1769467301       -0.3771830796       -1.1825065910
 C         -6.4951920401        0.0523868705       -1.1820543410
 C         -7.2231914501        0.0450137004       -0.0020575911
 C         -6.6443358203       -0.3908653197        1.1807831789
 C         -5.3277202903       -0.8226661798        1.1872251290
 H         -4.8401979204       -1.1723478300        2.0818040390
 H         -7.2136765703       -0.3946982998        2.0961872389
 H         -8.2480299701        0.3810828105       -0.0045405711
 H         -6.9465591900        0.3915021206       -2.1005737310
 H         -4.5685093900       -0.3825965296       -2.0729445410
 H         -1.5520091603       -0.8925161502        1.7320038492
 H         -3.4938570300        1.5467650001       -0.1114289807
 H         -2.5040442098        3.6326835602       -0.9906322704
 H         -0.1056943798        4.0799316200       -0.7278096902
 H          2.0079920299        2.4671016896        1.5560659297
 C          2.3353824801        3.6733081797       -0.1789707001
 C          2.2567083902        4.9928155897        0.5275179300
 C          3.5764040301        4.2987318696        0.3812063500
 H          4.3027538202        4.7059731296       -0.3058799199
 H          4.0137195100        3.8374166495        1.2546876700
 H          2.0787278703        5.8816216097       -0.0584802699
 H          1.7989432901        5.0089006996        1.5049250400
 H          2.2256686802        3.6585936398       -1.2572638101
