  62
        -98.94147803
 C         -1.8284666300       -1.3643130304        0.3841119905
 C         -1.5612814902       -0.1043718903       -0.2076503293
 C         -2.3916616801        1.0111830397        0.2717785811
 C         -3.3115039698        0.8063175795        1.2306879813
 C         -4.2270632897        1.8451341694        1.8193429717
 C         -5.4900644699        2.1057906295        0.9866285220
 C         -5.2675601902        2.8806510397       -0.3131899579
 H         -6.2518068403        3.1828829298       -0.6765623276
 H         -4.7064907602        3.7912139697       -0.1002482379
 C         -4.5590999805        2.0813917799       -1.4159603482
 H         -5.0819033608        2.2272888701       -2.3637741381
 H         -4.6122498105        1.0152223099       -1.1833738284
 C         -3.0971752506        2.4678025800       -1.6400720285
 H         -2.6849377308        1.8123229601       -2.4112040787
 H         -3.0420021107        3.4956584300       -2.0052299584
 C         -2.2166508603        2.3448211998       -0.3900809888
 H         -1.1707271003        2.4299121898       -0.6947065590
 H         -2.4413079001        3.1496696697        0.3095945814
 H         -6.1787164597        2.6784296994        1.6122420823
 H         -5.9649303000        1.1474376496        0.7631750520
 H         -4.5319328694        1.4714379092        2.7994532417
 H         -3.6824024897        2.7795582594        1.9593795117
 O         -3.5037303697       -0.4097996806        1.8087627411
 C         -2.7739575398       -1.5164146605        1.4011313207
 O         -3.0448536496       -2.5629990206        2.0240159006
 H          0.3845620403       -1.2013731806        1.7256444300
 C          1.0055408101       -1.5657108804        0.9156366497
 C          0.4240330998       -2.3157751503       -0.0994629802
 C          1.2370410196       -2.7673524601       -1.1311585205
 C          2.5918888396       -2.4814943401       -1.1364961508
 C          3.1628698798       -1.7242271802       -0.1313785008
 C          2.3537810701       -1.2470382804        0.8926386795
 N          2.9081546003       -0.4310994206        1.8919411495
 S          4.0255993002        0.7305894895        1.4399178794
 O          5.3433959002        0.1423948195        1.4285884989
 O          3.8377352905        1.8152289693        2.3800111396
 C          3.6019114798        1.2553551598       -0.2135139704
 C          2.2978868897        1.6052618498       -0.4997446600
 C          1.9785298194        2.0000190600       -1.7882938799
 C          2.9643618291        2.0507448302       -2.7611524801
 C          4.2726870192        1.7100140502       -2.4549825705
 C          4.5959654096        1.3038048699       -1.1707031607
 H          5.5962389296        1.0142400999       -0.8915977610
 H          5.0384686690        1.7512622403       -3.2128278407
 H          2.7079713189        2.3547813804       -3.7637528700
 H          0.9550700193        2.2389837801       -2.0274626996
 H          1.5394429099        1.5501381597        0.2650799801
 H          2.2307226605       -0.0520963707        2.5367912397
 H          4.2158096898       -1.4924547002       -0.1221380311
 H          3.2109655294       -2.8468203099       -1.9413272110
 H          0.8115705494       -3.3347022099       -1.9418079805
 C         -1.0554104501       -2.6105448903       -0.0101014299
 H         -1.2005215199       -3.3099797804        0.8306418800
 C         -1.6036225204       -3.3047785901       -1.2506099799
 C         -2.9875750506       -3.0264239300       -1.7552721395
 C         -1.7981489108       -2.5691454099       -2.5415701697
 H         -1.5686074110       -3.0800226897       -3.4651471499
 H         -1.5599679608       -1.5175606299       -2.5494187196
 H         -3.5752531904       -2.2846745701       -1.2335189092
 H         -3.5699348507       -3.8551628999       -2.1298346095
 H         -1.2747098805       -4.3368393101       -1.3206534401
 O         -0.6797058704        0.0973707299       -1.0790661395
