  62
        -98.93983897
 C         -2.7180633181       -0.1862062554        0.1792289073
 C         -2.4324275951       -0.9982114890       -0.9491573357
 C         -1.9499501439       -2.3549806724       -0.6794921704
 C         -1.8059173146       -2.7644718868        0.5936553840
 C         -1.3779277620       -4.1352834108        1.0446777336
 C          0.1424321489       -4.3365112440        1.0824439670
 C          0.8071463871       -4.4715719134       -0.2875298285
 H          0.2777728381       -5.2205191842       -0.8778588309
 H          1.8204037716       -4.8417051921       -0.1197058818
 C          0.8881555930       -3.1554259028       -1.0719577421
 H          1.8889089152       -3.0379370289       -1.4950840603
 H          0.7438333376       -2.3102752182       -0.3939886305
 C         -0.1005445479       -3.0313840256       -2.2315494054
 H          0.1487381972       -3.7611631549       -3.0061022049
 H          0.0167285846       -2.0303130479       -2.6558295158
 C         -1.5729700889       -3.2192315504       -1.8441309750
 H         -1.7711869753       -4.2677503123       -1.6197683348
 H         -2.1909633825       -2.9177237236       -2.6938346752
 H          0.3383215559       -5.2470297039        1.6538288141
 H          0.5919892509       -3.4975280905        1.6195726679
 H         -1.8304962230       -4.8889088216        0.3990399540
 H         -1.7681227032       -4.2622734008        2.0569305425
 O         -2.0809240256       -1.9585704777        1.6497498728
 C         -2.4905593057       -0.6383607840        1.4797863520
 O         -2.6315234005       -0.0282499973        2.5551984680
 O         -2.5993251579       -0.6016920963       -2.1355024009
 C         -3.1622875000        1.2338470089       -0.1304701076
 C         -1.9765918808        2.0462521642       -0.5923437945
 C         -2.0978381462        3.0019840439       -1.5946857937
 C         -0.9951313830        3.7257237361       -2.0124969414
 C          0.2537335928        3.4820181873       -1.4694449387
 C          0.3878813598        2.5170641592       -0.4791323171
 C         -0.7286485763        1.8305055378       -0.0282261439
 H         -0.6114665565        1.0898146427        0.7486666641
 N          1.6464013191        2.1929029227        0.0736871917
 S          2.0142826566        0.5370001726       -0.0295633543
 O          1.7542607835        0.0789098412       -1.3754209870
 O          1.3508028934       -0.1680080577        1.0373053385
 C          3.7699109778        0.5736354112        0.2811648782
 C          4.2017044642        0.7834126202        1.5770997241
 C          5.5632756885        0.8475683187        1.8267771401
 C          6.4646471931        0.7020086757        0.7823637494
 C          6.0159939121        0.4897696982       -0.5123997284
 C          4.6551484437        0.4267905899       -0.7694392538
 H          4.2581114016        0.2581657005       -1.7575745922
 H          6.7189962290        0.3738939670       -1.3214150755
 H          7.5237078400        0.7519465134        0.9799143320
 H          5.9154585487        1.0101330388        2.8325900333
 H          3.4632586080        0.8817546335        2.3559272339
 H          2.3903544821        2.7235888381       -0.3638857384
 H          1.1204829415        4.0231630974       -1.8185283182
 H         -1.1032789762        4.4685841548       -2.7881758793
 H         -3.0577750971        3.1586013164       -2.0644663514
 H         -3.8459124638        1.1471448641       -0.9920849334
 C         -3.9281047843        1.9095014519        0.9958389446
 C         -3.2994886958        2.9107145107        1.9131180572
 C         -4.3150674025        3.3561978122        0.9069231808
 H         -5.2948834898        3.6438330066        1.2564832606
 H         -3.9609461758        3.9239392165        0.0607223575
 H         -3.5699239682        2.8728987336        2.9568025389
 H         -2.2641179485        3.1648700347        1.7436166080
 H         -4.6542652359        1.2403940271        1.4445647431
