  62
        -98.93982963
 C          2.3380844066        1.0190875754        0.3180316302
 C          2.6065329724       -0.1068375504       -0.4990983768
 C          3.6445534263       -1.0226478894       -0.0019943109
 C          4.2323874878       -0.7984854092        1.1861278081
 C          5.2833664930       -1.6578398401        1.8345390207
 C          6.7110814138       -1.3668521272        1.3519255470
 C          7.0299265726       -1.8466518174       -0.0646590079
 H          8.1120778451       -1.7757748247       -0.1908860388
 H          6.7594402459       -2.8986539919       -0.1605598931
 C          6.3501048532       -1.0351669499       -1.1763678357
 H          6.0035211027       -0.0814902557       -0.7713594741
 H          7.0786670774       -0.8048495405       -1.9570050344
 C          5.1742357591       -1.7431279746       -1.8497024943
 H          5.5325923686       -2.6323718430       -2.3731085396
 H          4.7455437395       -1.0657767038       -2.5929846968
 C          4.0540021855       -2.1606795519       -0.8880278800
 H          3.1836141198       -2.4515487468       -1.4816271973
 H          4.3705689183       -3.0148800146       -0.2899658391
 H          7.3958474915       -1.8635493441        2.0430405571
 H          6.8907700160       -0.2915454501        1.4216104711
 H          5.0498576735       -2.7102319529        1.6708360932
 H          5.2337719947       -1.4525440898        2.9059787843
 O          3.9093400703        0.2658017428        1.9674687270
 C          2.9859625496        1.2053281077        1.5437531690
 O          2.8256740576        2.1544689164        2.3365435797
 O          2.0215619536       -0.3605114849       -1.5848376513
 C          1.3505734964        2.1109817849       -0.0623666912
 C         -0.0590474890        1.7506219703        0.3293851325
 C         -0.8522334771        2.6384193285        1.0459991968
 C         -2.1565716927        2.3106548557        1.3734795309
 C         -2.6952037550        1.0948080694        0.9923751970
 C         -1.9098823459        0.1998894999        0.2775078585
 C         -0.6023832563        0.5295929081       -0.0461531168
 H         -0.0003964473       -0.1634646211       -0.6158046193
 N         -2.4538504055       -1.0391771094       -0.1183895352
 S         -3.8041387356       -0.9615402347       -1.1210747264
 O         -3.8161107760       -2.2103042051       -1.8508300051
 O         -3.7993730954        0.2473069859       -1.9128273489
 C         -5.1761371597       -0.9401076270        0.0135051627
 C         -6.0733327009        0.1096050461       -0.0106789568
 C         -7.1387299754        0.1005735321        0.8763256143
 C         -7.2869393238       -0.9522016192        1.7662775606
 C         -6.3781973079       -2.0001684899        1.7760572952
 C         -5.3118619886       -1.9980056375        0.8911573057
 H         -4.5861253504       -2.7936228834        0.8624274764
 H         -6.4970278842       -2.8170566155        2.4695525790
 H         -8.1160886857       -0.9566663065        2.4560662625
 H         -7.8466616402        0.9136978826        0.8698772451
 H         -5.9137140826        0.9087622361       -0.7167388348
 H         -1.7640079025       -1.6531252738       -0.5297798645
 H         -3.7106253254        0.8344201654        1.2430977430
 H         -2.7607425957        3.0095526215        1.9313352068
 H         -0.4364526682        3.5871717097        1.3526323329
 H          1.6469842707        2.9847613734        0.5389479662
 C          1.4647280131        2.5140107181       -1.5283975553
 C          0.4053122621        2.2573320669       -2.5541268544
 C          0.6436966059        3.6509599080       -2.0607273059
 H          1.1118477932        4.3645831093       -2.7216014272
 H         -0.0987693063        4.0766816616       -1.4025952500
 H          0.7296121349        1.9932059428       -3.5495474168
 H         -0.5021536069        1.7562397924       -2.2529450047
 H          2.4895796309        2.4528631921       -1.8814220226
