  62
        -98.94414359
 C         -2.1973907845       -0.7743187051       -0.0252359782
 C         -2.9076874221       -0.0877474694        0.9872534254
 C         -3.6992251767        1.0685291513        0.5463892021
 C         -3.6743406731        1.4254664296       -0.7510861817
 C         -4.4724770742        2.5485581824       -1.3460144666
 C         -5.8340073477        2.0531417968       -1.8534682678
 C         -6.6010624445        1.2061267920       -0.8380317472
 H         -7.5572168667        0.9393198864       -1.2932709947
 H         -6.0562248172        0.2750356708       -0.6659870934
 C         -6.8522361552        1.9011348615        0.5074440852
 H         -6.7226047904        2.9785106929        0.3983880798
 H         -7.8890790823        1.7277493639        0.8030295083
 C         -5.9734132674        1.3991134000        1.6546393399
 H         -6.3771773260        1.7940436483        2.5907676048
 H         -6.0292855529        0.3089110730        1.7088862893
 C         -4.4949161701        1.8026645637        1.5888865068
 H         -4.0376375816        1.5476202722        2.5497361282
 H         -4.4141423141        2.8825279778        1.4474519494
 H         -6.4339133627        2.9208079262       -2.1338488839
 H         -5.6702860908        1.4489201091       -2.7486478193
 H         -3.9105786804        2.9625547221       -2.1849351341
 H         -4.6129208882        3.3252445818       -0.5966922182
 O         -2.9450578913        0.7671890994       -1.6875746588
 C         -2.1964271254       -0.3530414512       -1.3553367839
 O         -1.5865888421       -0.8658624400       -2.3112183135
 O         -2.8756845428       -0.4221710333        2.2035966632
 C         -1.3785864851       -1.9958002131        0.3480002089
 C          0.0777051297       -1.7827365412        0.0132423088
 C          0.8686899247       -2.7483435832       -0.5949428510
 C          2.2035233158       -2.4955938940       -0.8611001345
 C          2.7783454703       -1.2837747289       -0.5270629445
 C          2.0010563302       -0.3157392324        0.0958849717
 C          0.6662569683       -0.5741085301        0.3658320109
 H          0.0627703123        0.1818411205        0.8546301063
 N          2.5744073415        0.9235478371        0.4332190260
 S          3.9980533474        0.9190486488        1.3249137368
 O          4.0940339224       -0.2553900112        2.1607502441
 O          4.0214279594        2.1958103447        2.0050147703
 C          5.2790242565        0.8959488446        0.0888611841
 C          6.2256938702       -0.1097038612        0.0959436474
 C          7.2168111099       -0.1033235864       -0.8732990612
 C          7.2439613317        0.9035878323       -1.8259938697
 C          6.2875836450        1.9081872064       -1.8171711776
 C          5.2945695149        1.9080710743       -0.8507235539
 H          4.5351021584        2.6709124845       -0.8069220444
 H          6.3119254379        2.6896051829       -2.5595723651
 H          8.0150764981        0.9059723232       -2.5800847249
 H          7.9614371742       -0.8829533753       -0.8818334562
 H          6.1612297606       -0.8744943141        0.8534254093
 H          1.9154154221        1.5804448500        0.8254239599
 H          3.8148361039       -1.0809067586       -0.7409617244
 H          2.8038656887       -3.2532265170       -1.3410475042
 H          0.4394815911       -3.6989688159       -0.8652313182
 H         -1.4637261998       -2.0819584282        1.4422840602
 C         -1.9708784551       -3.2381284205       -0.2844513604
 C         -1.8453425303       -4.5682458797        0.3945518086
 C         -3.1704702753       -3.8702223206        0.3533486061
 H         -3.9457288744       -4.2669651799       -0.2848276451
 H         -3.5419343503       -3.4210290837        1.2631488620
 H         -1.7131526152       -5.4487241003       -0.2159279700
 H         -1.3199159681       -4.6010055238        1.3371161236
 H         -1.9378209129       -3.2077916865       -1.3677577858
