  62
        -98.93518733
 C         -2.2412856803       -0.9971405792       -0.0511359795
 C         -3.0437327301       -0.4905314792        1.0016630806
 C         -3.9819314301        0.6013708709        0.6811141408
 C         -4.0071746001        1.0783675011       -0.5767952892
 C         -4.9043081500        2.1419562312       -1.1504550790
 C         -6.3293264501        1.6283123714       -1.4186942990
 C         -6.9149318601        0.7457366913       -0.3189839690
 H         -7.8653263702        0.3475854415       -0.6841724590
 H         -6.2515953302       -0.1046697888       -0.1502933692
 C         -7.1842036100        1.4501898012        1.0085124511
 H         -7.6572608800        0.7222050112        1.6725065810
 H         -7.8966146099        2.2618253813        0.8442578612
 C         -5.9588035999        2.0211096510        1.7243715810
 H         -6.2701228398        2.2890577110        2.7383507511
 H         -5.6244081898        2.9408617810        1.2519405011
 C         -4.7923066599        1.0488474109        1.8735766909
 H         -4.0693585799        1.4784566008        2.5780220909
 H         -5.1503228400        0.1307822709        2.3531596208
 H         -6.9806932700        2.4877999615       -1.5850120688
 H         -6.3061014702        1.0391911315       -2.3387247790
 H         -4.9185942099        3.0087212912       -0.4962490289
 H         -4.4607859400        2.4497650013       -2.1000167390
 O         -3.1970341602        0.5833756111       -1.5534348793
 C         -2.3043972203       -0.4531374290       -1.3334926694
 O         -1.6511708004       -0.7699113190       -2.3463940395
 O         -2.9951428101       -0.9491748493        2.1751347606
 C         -1.3249899803       -2.1599172693        0.2897863804
 C          0.0739386997       -1.6923200694        0.5988425203
 C          0.6908428098       -2.0280655096        1.7981894203
 C          1.9753501298       -1.5929291898        2.0745625802
 C          2.6726052998       -0.8237980798        1.1601816903
 C          2.0616542998       -0.4743109296       -0.0372069697
 C          0.7706450897       -0.9053904294       -0.3082886196
 H          0.2976753797       -0.6295667393       -1.2395806996
 N          2.7634414898        0.2875735104       -0.9862677896
 S          3.5858198000        1.6568703303       -0.4751832295
 O          2.9610064701        2.2504848103        0.6849217006
 O          3.6930587200        2.4963275304       -1.6483160995
 C          5.2026519399        1.0399343701       -0.0536142797
 C          5.7473890900        1.3186753999        1.1845620203
 C          7.0090991100        0.8299874998        1.4869061102
 C          7.7001256099        0.0765139198        0.5504974501
 C          7.1404995498       -0.1912623100       -0.6900832099
 C          5.8803633798        0.2951608901       -0.9990617398
 H          5.4110562497        0.1113666003       -1.9511457098
 H          7.6805946597       -0.7775327100       -1.4159286700
 H          8.6805931999       -0.3044422103        0.7887914700
 H          7.4459254801        1.0377641096        2.4504479102
 H          5.1700588401        1.9028259299        1.8835650104
 H          2.2311128298        0.4739888806       -1.8241566096
 H          3.6737496999       -0.4843793599        1.3691256802
 H          2.4413283498       -1.8583955899        3.0111026602
 H          0.1502064497       -2.6206738897        2.5215429302
 H         -1.7449476303       -2.5725949393        1.2207266103
 C         -1.3677882605       -3.2690036392       -0.7541653298
 C         -0.2196271706       -3.6291149492       -1.6439891799
 C         -0.6091735606       -4.5427485093       -0.5235039599
 H         -1.0875384607       -5.4814358092       -0.7579385800
 H          0.0426531194       -4.5788795494        0.3364011400
 H         -0.4490467707       -3.9181739891       -2.6583997599
 H          0.6983127695       -3.0712037793       -1.5502234999
 H         -2.3563721905       -3.3661489490       -1.1925132897
