  62
        -98.93822065
 C         -2.4570469739       -0.6289241175        0.2784922049
 C         -2.6632673212        0.7716175144        0.3838172372
 C         -3.8181236575        1.3198164975       -0.3370488983
 C         -4.5796925519        0.4934961692       -1.0766558954
 C         -5.8125288835        0.9023967541       -1.8282566155
 C         -7.0700449601        0.7367639559       -0.9635612141
 C         -6.9473692485        1.3564964818        0.4284818687
 H         -7.9029523353        1.2077756460        0.9359681557
 H         -6.1929045258        0.8080998568        0.9971462132
 C         -6.5949176681        2.8505866187        0.4291750258
 H         -6.8029404949        3.2806444083       -0.5511825864
 H         -7.2371805841        3.3611325091        1.1498912104
 C         -5.1495387650        3.1617923233        0.8225257243
 H         -5.0713179513        4.2370289677        1.0041669792
 H         -4.9077980341        2.6533713944        1.7593028965
 C         -4.0805736581        2.7946134549       -0.2147872438
 H         -4.3473605645        3.2197893563       -1.1844878352
 H         -3.1356785009        3.2413402602        0.1079098108
 H         -7.9135451618        1.1857143539       -1.4912282250
 H         -7.2713027723       -0.3306150938       -0.8466673697
 H         -5.7108346340        1.9380729947       -2.1466585855
 H         -5.9029026964        0.2673744051       -2.7111772309
 O         -4.3328049106       -0.8347141070       -1.1846959308
 C         -3.2794534621       -1.4357486229       -0.5088807649
 O         -3.2071494874       -2.6645913400       -0.7010399921
 O         -1.9148562859        1.5281434789        1.0599230750
 C         -1.2767499835       -1.2039299598        1.0444490870
 C         -0.0987093103       -1.4081858420        0.1208879958
 C         -0.0674706649       -2.4414865116       -0.8093911679
 C          1.0231512173       -2.5950483340       -1.6460159565
 C          2.1006654289       -1.7299423359       -1.5741948079
 C          2.0800691471       -0.6949101906       -0.6491948158
 C          0.9853454964       -0.5445796199        0.1933611798
 H          0.9638947228        0.2702521339        0.9049413272
 N          3.1628348996        0.2011102997       -0.5821509755
 S          4.7149524156       -0.4647901700       -0.6550582065
 O          5.0468728794       -0.6974729423       -2.0383263032
 O          4.7999111306       -1.6149288289        0.2168856613
 C          5.7027221824        0.8735197462       -0.0161978426
 C          6.0985420925        1.8800133151       -0.8764899598
 C          6.8534707824        2.9291087623       -0.3766599103
 C          7.1974334031        2.9545594552        0.9668154382
 C          6.7941630629        1.9362926280        1.8175619642
 C          6.0380519139        0.8845387842        1.3245528430
 H          5.7125310839        0.0664759303        1.9471232229
 H          7.0664039049        1.9569641426        2.8605662427
 H          7.7865615389        3.7713683493        1.3528748306
 H          7.1719068137        3.7210726519       -1.0351521322
 H          5.8167199698        1.8128963492       -1.9142968743
 H          3.0760605319        0.8459236709        0.1916369305
 H          2.9575183564       -1.8459646998       -2.2182268032
 H          1.0353771277       -3.4002536904       -2.3655857230
 H         -0.9125709607       -3.1072477210       -0.8871363194
 H         -1.0001079611       -0.4222995713        1.7650375062
 C         -1.6114821301       -2.4646067063        1.8158886517
 C         -0.7115318436       -2.8851286481        2.9376378508
 C         -2.0803172267       -2.3517570795        3.2342014086
 H         -2.8387088252       -3.0372407779        3.5813302507
 H         -2.1609635313       -1.3611417681        3.6577720467
 H         -0.5259881544       -3.9383898576        3.0813195956
 H          0.1379681223       -2.2563961283        3.1586675275
 H         -2.0560436684       -3.2412119246        1.2082407396
