  62
        -98.93871105
 C         -1.8268372004        0.9029335747       -0.3642394100
 C         -2.4759392726        0.2551375249        0.7110883821
 C         -3.5827357309       -0.6606381574        0.3641003059
 C         -3.8810072976       -0.8570219111       -0.9336463214
 C         -4.9821303499       -1.7003934670       -1.5189708040
 C         -6.3635447145       -1.0360427490       -1.3974383544
 C         -6.6495730946       -0.3880289942       -0.0451921575
 H         -7.6014713724        0.1432664437       -0.1267743987
 H         -5.8801293754        0.3569863863        0.1652821047
 C         -6.7547523539       -1.3555014643        1.1312496681
 H         -7.5574557573       -2.0703042202        0.9364913650
 H         -7.0382038696       -0.7694005310        2.0091769677
 C         -5.4833090167       -2.1356062732        1.4717223877
 H         -5.3263561906       -2.9532069147        0.7731888604
 H         -5.6354131906       -2.5930734126        2.4537819164
 C         -4.2219097306       -1.2844284947        1.5811809682
 H         -3.4341053250       -1.8868797681        2.0502143376
 H         -4.4059460516       -0.4602378778        2.2796962823
 H         -7.1267593457       -1.7853573537       -1.6138611704
 H         -6.4304508852       -0.2561186510       -2.1598772871
 H         -4.9824381586       -2.6847070036       -1.0600540936
 H         -4.7503145376       -1.8282671861       -2.5787712564
 O         -3.1957416110       -0.2410282703       -1.9402003153
 C         -2.1634601930        0.6413790002       -1.6908350942
 O         -1.6239018512        1.1120133028       -2.7141540659
 O         -2.1583028913        0.4314341059        1.9161011514
 C         -0.6935459172        1.8771651450       -0.0969784739
 C          0.4418695649        1.1646754129        0.5978049650
 C          1.0702150106        1.6458202356        1.7381123519
 C          2.1037334901        0.9329158274        2.3227396601
 C          2.5400553407       -0.2609475945        1.7801021092
 C          1.9323964740       -0.7397843489        0.6254605209
 C          0.8980212250       -0.0251981569        0.0424207216
 H          0.4231349371       -0.4015556751       -0.8558416216
 N          2.3837920682       -1.9398085802        0.0506226168
 S          4.0364888447       -2.1699996773       -0.0800593349
 O          4.2084666532       -3.0383348036       -1.2238671187
 O          4.5570066021       -2.6682167943        1.1688117123
 C          4.7144225042       -0.5525937549       -0.4106744095
 C          5.6394105174       -0.0042305266        0.4541721642
 C          6.1308489211        1.2649930672        0.1936120111
 C          5.6874057572        1.9617496868       -0.9194435433
 C          4.7602417488        1.3956064625       -1.7812768474
 C          4.2676191401        0.1260849979       -1.5272366055
 H          3.5483054092       -0.3411040427       -2.1812234831
 H          4.4151206424        1.9382950556       -2.6467998125
 H          6.0655401574        2.9519080420       -1.1189659204
 H          6.8534123388        1.7068335600        0.8605306005
 H          5.9527563905       -0.5795943163        1.3100059087
 H          1.9096800469       -2.1900996497       -0.8042062505
 H          3.3314031335       -0.8354052616        2.2336376398
 H          2.5741265572        1.3117932113        3.2169783409
 H          0.7443667005        2.5737089440        2.1776457578
 H         -0.3346625380        2.1984402338       -1.0858551041
 C         -1.2036963466        3.0892822482        0.6530823560
 C         -0.5214309062        4.4138636716        0.4948992303
 C         -1.8697804182        4.1874869847       -0.1182299322
 H         -2.7266855361        4.6781672582        0.3184668742
 H         -1.9342294515        4.0722223634       -1.1907612008
 H         -0.4539935490        5.0656304529        1.3527398457
 H          0.3320515983        4.4607183675       -0.1642005912
 H         -1.6186276609        2.8357427210        1.6215401584
