  62
        -98.93387676
 C         -2.1831053447       -1.3385240572        0.3055627158
 C         -1.6736979456       -0.3298354886       -0.5484546874
 C         -2.3044568417        0.9943701179       -0.4196585561
 C         -3.3314488009        1.1722720386        0.4300509305
 C         -4.1594690444        2.4189720018        0.6018713056
 C         -3.4482231858        3.6520371385        1.1916845928
 C         -2.8673210755        4.6092918470        0.1438432794
 H         -3.4273198585        4.4928558952       -0.7848220376
 H         -3.0278931579        5.6355089981        0.4804009220
 C         -1.3693934291        4.4573562090       -0.1376657687
 H         -1.1438566435        4.9979138622       -1.0588814607
 H         -0.8051000218        4.9302900123        0.6692441671
 C         -0.8638906597        3.0213355864       -0.2684308780
 H         -0.8330273028        2.5546230701        0.7195356223
 H          0.1665530872        3.0503090831       -0.6254785703
 C         -1.7045550290        2.1269463068       -1.2001029396
 H         -2.4812906585        2.7081511123       -1.6949865454
 H         -1.0655876925        1.6788330422       -1.9635724171
 H         -4.1952803964        4.1965905499        1.7716809838
 H         -2.6737299382        3.3300025368        1.8875222907
 H         -4.5933835633        2.6831842177       -0.3653259644
 H         -4.9769742342        2.1316445874        1.2666929754
 O         -3.7904023840        0.1733421730        1.2346480050
 C         -3.2039258566       -1.0812819175        1.2242454513
 O         -3.6726603012       -1.8723558343        2.0672294576
 H          0.0732973289       -1.1875586434        1.6388433310
 C          0.6068449605       -1.8479268345        0.9655348368
 C         -0.1164996531       -2.7332312941        0.1744975212
 C          0.5833965523       -3.5714754065       -0.6833240322
 C          1.9659529468       -3.5233188867       -0.7398170191
 C          2.6795496884       -2.6315902951        0.0379202632
 C          1.9884212297       -1.7700397140        0.8832329670
 N          2.6896343694       -0.8412101142        1.6730892195
 S          3.9127869998        0.1134824454        1.0557008798
 O          4.9664346058       -0.7340170079        0.5550312911
 O          4.2698615392        0.9962422982        2.1433060542
 C          3.2383506464        1.0792088745       -0.2873932147
 C          3.1766348252        2.4511513406       -0.1398248229
 C          2.6866767044        3.2191820010       -1.1836514878
 C          2.2548935724        2.6030898648       -2.3491407789
 C          2.3143243138        1.2245633382       -2.4779113400
 C          2.8177402358        0.4517658092       -1.4434526523
 H          2.8778798375       -0.6204589363       -1.5259512891
 H          1.9666974451        0.7421828096       -3.3770085500
 H          1.8660537953        3.2001447996       -3.1592306523
 H          2.6407038988        4.2921792369       -1.0844733587
 H          3.5188640610        2.8869720325        0.7849651123
 H          2.0944325022       -0.2862746561        2.2701141997
 H          3.7550926153       -2.5751852455       -0.0089126611
 H          2.4962477069       -4.1866677588       -1.4064595755
 H          0.0513712158       -4.2565107748       -1.3218511164
 C         -1.6214465203       -2.7489811504        0.3046706246
 H         -1.8637231485       -3.1538336888        1.3021087745
 C         -2.2941339385       -3.6651469264       -0.7104365375
 C         -3.6415306024       -3.3464098053       -1.2845132562
 C         -2.4221506111       -3.2714388744       -2.1505573520
 H         -2.2841995997       -4.0287804998       -2.9081894630
 H         -2.0496104163       -2.2981515626       -2.4287951948
 H         -4.1170992539       -2.4246266969       -0.9822573901
 H         -4.3336936855       -4.1614366431       -1.4355571950
 H         -2.1074575577       -4.7140048796       -0.5025470894
 O         -0.7482024457       -0.5079404546       -1.3803948242
