  62
        -98.94581060
 C         -2.1953243394       -1.1884622661        0.2033596556
 C         -1.8828767872       -0.2645449877       -0.8241090899
 C         -2.6949422604        0.9605013392       -0.8440774211
 C         -3.6589504887        1.1423683727        0.0769392640
 C         -4.5941253987        2.3184726994        0.1624899862
 C         -4.0126076335        3.5317748588        0.9009849906
 C         -2.9392546767        4.3052026889        0.1342041942
 H         -3.3158807726        4.5602602122       -0.8568310503
 H         -2.7726720670        5.2414952546        0.6705321061
 C         -1.5999250348        3.5664927225        0.0026832144
 H         -0.7801029784        4.2486887276        0.2409777733
 H         -1.5604245103        2.7550583393        0.7340507511
 C         -1.3269527442        2.9957153040       -1.3886333302
 H         -1.2556011513        3.8129727631       -2.1094440495
 H         -0.3606361653        2.4875239969       -1.3638399578
 C         -2.3825432187        1.9969281442       -1.8819234341
 H         -3.2898094361        2.5257424745       -2.1733141945
 H         -1.9836242093        1.4786491826       -2.7571582283
 H         -3.6073184269        3.1978278963        1.8592609420
 H         -4.8402870968        4.2129733088        1.1113458965
 H         -4.9017151508        2.6157687534       -0.8404165556
 H         -5.4751699496        1.9740166752        0.7084279381
 O         -3.9158069303        0.2358355636        1.0577269873
 C         -3.1887083851       -0.9412336914        1.1501659935
 O         -3.5152386254       -1.6724882453        2.1080404502
 H         -0.1962429692       -0.5553752237        1.6331630385
 C          0.5127269869       -1.2308352481        1.1692288067
 C          0.0398873767       -2.2997128595        0.4197114158
 C          0.9661566659       -3.1541109781       -0.1666256961
 C          2.3240466095       -2.9415942091       -0.0017490157
 C          2.7901365949       -1.8701475887        0.7371347268
 C          1.8726623364       -1.0032226497        1.3174243556
 N          2.3347282345        0.1133679274        2.0331741417
 S          3.6050088280        0.9885658579        1.3808052851
 O          4.8543106924        0.4099547050        1.8121483007
 O          3.3755153710        2.3548707354        1.7986161797
 C          3.4682757748        0.8396485197       -0.3931158142
 C          2.2340658961        1.0081890727       -0.9872654165
 C          2.1220768759        0.8627438770       -2.3598338158
 C          3.2471122699        0.5708284889       -3.1153533490
 C          4.4838911202        0.4210014213       -2.5072847209
 C          4.5972421716        0.5483128351       -1.1321204138
 H          5.5342574340        0.4175341909       -0.6154112434
 H          5.3570263437        0.1948355183       -3.0978913362
 H          3.1552520775        0.4555041055       -4.1837376683
 H          1.1505341194        0.9501055665       -2.8194929908
 H          1.3677552539        1.2275672641       -0.3831631290
 H          1.6022185379        0.7252519016        2.3610035890
 H          3.8441350333       -1.6892028799        0.8749389664
 H          3.0301342749       -3.6169601406       -0.4595946237
 H          0.6233584237       -3.9893542273       -0.7545500092
 C         -1.4504519144       -2.5070739907        0.2949738299
 H         -1.8006711982       -2.9881716948        1.2208350381
 C         -1.8295463916       -3.3866237886       -0.8808641606
 C         -1.9220293120       -4.8736400606       -0.7214598623
 C         -3.1692721764       -4.0574618690       -0.8737735841
 H         -3.7212325148       -4.1207504283       -1.7995115984
 H         -3.7930407349       -3.9057307233       -0.0043270097
 H         -1.6199024594       -5.5011032059       -1.5464750192
 H         -1.7070703965       -5.2884495335        0.2518807611
 H         -1.4725481266       -2.9922637247       -1.8252226274
 O         -0.9816788877       -0.4484783160       -1.6803190484
