  62
        -98.93755687
 C         -1.2271614504       -1.3787146396        0.5621076600
 C         -2.0723837804       -1.0951682498       -0.5363317200
 C         -3.2523855102       -0.2532301494       -0.2544869402
 C         -3.4207200900        0.2507096510        0.9794221796
 C         -4.5100423998        1.1708321314        1.4574290394
 C         -4.0717763595        2.6406177313        1.3383712589
 C         -4.3644226494        3.2918279809       -0.0125058913
 H         -5.4421637794        3.4354957711       -0.1165126713
 H         -3.8995435492        4.2804870708       -0.0029153816
 C         -3.8519742197        2.5213668804       -1.2320601211
 H         -3.7789633596        3.2238837801       -2.0648287013
 H         -2.8423906297        2.1534512902       -1.0356162010
 C         -4.7688278500        1.3585588205       -1.6402732206
 H         -5.7186460199        1.4526610008       -1.1140502006
 H         -4.9959473500        1.4356374602       -2.7056302306
 C         -4.1877417602       -0.0440548396       -1.4142922302
 H         -5.0117937804       -0.7608187294       -1.3292121499
 H         -3.6052061804       -0.3396155300       -2.2928442602
 H         -2.9985291894        2.6910259011        1.5430656588
 H         -4.5787963093        3.2221810216        2.1112687888
 H         -5.4336004899        0.9907862914        0.9152386195
 H         -4.6703515498        0.9404516118        2.5128656195
 O         -2.5374223100        0.0187492112        1.9902786297
 C         -1.4232615702       -0.7775613291        1.8070141998
 O         -0.6874529701       -0.8706485790        2.8110053598
 H          0.6810430199        0.2868399298       -0.0510546807
 C          1.1043527697       -0.3596040005       -0.8052196905
 C          0.8348196094       -1.7212830705       -0.7639235700
 C          1.3501856992       -2.5285400609       -1.7687644198
 C          2.1103310292       -1.9748913214       -2.7851869700
 C          2.3950688395       -0.6216676115       -2.8089778105
 C          1.8807099098        0.1946618690       -1.8078960707
 N          2.1443016001        1.5732720189       -1.7765164212
 S          2.3626753303        2.3138953193       -0.2935321514
 O          1.0926225804        2.5423951598        0.3503115986
 O          3.1337904406        3.5012200191       -0.5964024419
 C          3.3598250402        1.1681011194        0.6436857689
 C          2.8412013201        0.5082977299        1.7387018691
 C          3.6359581299       -0.4133975601        2.4029090694
 C          4.9277009899       -0.6577973305        1.9646007193
 C          5.4385823399        0.0209873790        0.8684038391
 C          4.6484286501        0.9404196790        0.1993160588
 H          5.0132789901        1.4943101586       -0.6503224214
 H          6.4456371299       -0.1666991913        0.5328693091
 H          5.5386998297       -1.3798536605        2.4827429695
 H          3.2314779099       -0.9378385397        3.2542096396
 H          1.8300543902        0.7105193102        2.0577656891
 H          2.8032212701        1.9003364385       -2.4674407813
 H          2.9954443596       -0.1962802919       -3.5982886407
 H          2.4953827690       -2.6104151718       -3.5680511698
 H          1.1396684090       -3.5851858409       -1.7705732694
 C          0.0259688494       -2.2226513199        0.4077111202
 H          0.6147531495       -2.0095826798        1.3163748901
 C         -0.2104418109       -3.7253387199        0.3951438707
 C         -1.4492879110       -4.3203898094        0.9939847810
 C         -1.2312419411       -4.3768698899       -0.4867640890
 H         -0.9880265114       -5.3316227101       -0.9300329787
 H         -1.8228185210       -3.7364884000       -1.1205410792
 H         -1.3560501512       -5.2310515392        1.5667155213
 H         -2.1975542008       -3.6396279291        1.3744087908
 H          0.7093885090       -4.2777027100        0.5608257408
 O         -1.8648617806       -1.5162053702       -1.7038170399
