  62
        -98.94673344
 C          1.5555927183        1.5086223817       -0.0011025388
 C          2.3843039618        0.9185733008        0.9819930672
 C          3.1173926040       -0.2807486105        0.5637945303
 C          2.9727911827       -0.7485151308       -0.6900332320
 C          3.7191209641       -1.9110230074       -1.2877674466
 C          3.1052022622       -3.2854384107       -0.9920992283
 C          3.2485281040       -3.7685322963        0.4509692426
 H          4.2953920349       -3.7160378660        0.7515507143
 H          2.9587502067       -4.8209212033        0.4687682131
 C          2.3822575072       -2.9993181505        1.4581867906
 H          1.8705110465       -3.7055325960        2.1158817067
 H          1.6087414451       -2.4427403549        0.9228708634
 C          3.1642558721       -2.0344650560        2.3500321140
 H          3.8504658221       -2.5981991319        2.9860985045
 H          2.4561875831       -1.5143592756        3.0008840781
 C          3.9687037708       -0.9768087708        1.5822455025
 H          4.8358427325       -1.4357838032        1.1077517687
 H          4.3170247646       -0.2255359671        2.2954652469
 H          3.5974694145       -4.0088766641       -1.6459517135
 H          2.0479434199       -3.2545649156       -1.2567878546
 H          3.7126379703       -1.7581156807       -2.3690654713
 H          4.7535488086       -1.8911450796       -0.9425304795
 O          2.1367333743       -0.1735800228       -1.5939063825
 C          1.3951447256        0.9546350052       -1.2717304502
 O          0.6544676944        1.3600323419       -2.1850539154
 H         -0.5140326505        0.7788834497        1.5112730762
 C         -1.1969327400        1.4036033654        0.9483021188
 C         -0.6954014348        2.5091316679        0.2702246120
 C         -1.5817622556        3.3042278191       -0.4428791473
 C         -2.9305057625        2.9907770697       -0.4821025623
 C         -3.4247508578        1.8893368469        0.1914148056
 C         -2.5458157159        1.0889479824        0.9118266533
 N         -3.0385072985       -0.0392474697        1.6032220440
 S         -3.7187182136       -1.2661967134        0.6899318925
 O         -4.8629636440       -0.7440988848       -0.0115286647
 O         -3.9723569259       -2.3423731988        1.6200781050
 C         -2.4590973749       -1.7583965491       -0.4732339932
 C         -2.1879173609       -0.9444839008       -1.5554376463
 C         -1.1846074038       -1.3144765053       -2.4366108364
 C         -0.4814014522       -2.4904329714       -2.2269178699
 C         -0.7662422452       -3.2981238795       -1.1358848730
 C         -1.7580117738       -2.9253744637       -0.2434023699
 H         -2.0110206595       -3.5218166342        0.6185172701
 H         -0.2210141351       -4.2151904407       -0.9758629398
 H          0.2933967466       -2.7732809239       -2.9228121176
 H         -0.9434119476       -0.6724047711       -3.2682763877
 H         -2.7564750496       -0.0402785820       -1.6991055807
 H         -2.3616952362       -0.4400190598        2.2377988986
 H         -4.4687121643        1.6237112806        0.1559578600
 H         -3.6071559053        3.6152257587       -1.0456066225
 H         -1.2179868533        4.1670607677       -0.9756460205
 C          0.7877483340        2.7707727367        0.3483800387
 H          1.0394064445        2.9828442383        1.3984247938
 C          1.2513193546        3.9311988611       -0.5059172345
 C          1.1369490128        5.3350493642        0.0061511671
 C          2.4818713092        4.6829050620       -0.0989604981
 H          3.1605429050        5.0171926801       -0.8692182961
 H          2.9747406775        4.3736231484        0.8113184433
 H          0.7177103520        5.4752087409        0.9910372003
 H          0.8942076192        6.1217269190       -0.6921292736
 H          1.1008156865        3.7568370715       -1.5651863169
 O          2.5106765597        1.3773225080        2.1503327614
