  62
        -98.94892525
 C         -1.6625997500       -1.2776522698       -0.2611417821
 C         -0.6015155397       -1.7215799082       -1.0836742027
 C          0.3811276103       -2.6060908692       -0.4473270740
 C          0.2418663601       -2.9130714214        0.8552762655
 C          1.1882201400       -3.7806881726        1.6338374342
 C          2.2880512297       -2.9519426136        2.3105698859
 C          2.9780249598       -1.9557647719        1.3783328878
 H          2.2574089297       -1.1836044115        1.0971354389
 H          3.7577275296       -1.4599545927        1.9627579188
 C          3.5984145202       -2.5789824796        0.1200374968
 H          4.5900186401       -2.1465210091       -0.0283780922
 H          3.7316297003       -3.6514289998        0.2687712950
 C          2.8097128604       -2.3387496775       -1.1682673729
 H          3.4465297407       -2.6146706059       -2.0127448733
 H          2.5794554703       -1.2745707073       -1.2615861611
 C          1.5007268406       -3.1251003175       -1.3049666346
 H          1.1574202308       -3.0217617257       -2.3384359845
 H          1.6811204008       -4.1834106278       -1.1057617464
 H          3.0276340698       -3.6372485042        2.7303598849
 H          1.8409060895       -2.3858212951        3.1314071168
 H          1.6334261103       -4.5134288914        0.9629649430
 H          0.6177708000       -4.3049371941        2.4028196031
 O         -0.7741255802       -2.4440707530        1.6230974761
 C         -1.7350690002       -1.5955360822        1.0950374173
 O         -2.5943888405       -1.2179046138        1.9154171178
 O         -0.4853535595       -1.3963225261       -2.2972134421
 C         -2.7082146000       -0.3493809190       -0.8538787208
 C         -2.6276966104        0.9921888898       -0.1688987284
 C         -3.7328951206        1.6943982188        0.2921253326
 C         -3.5675598410        2.9020968677        0.9492510247
 C         -2.3067058411        3.4231941275        1.1719577159
 C         -1.1946662909        2.7339101686        0.6996638150
 C         -1.3657150105        1.5460562997        0.0101588829
 H         -0.5002570904        1.0106522705       -0.3529740979
 N          0.1022774790        3.2359092985        0.8885580361
 S          1.4015091291        2.2065148383        1.1136305746
 O          0.9990862492        0.9245153273        1.6436557923
 O          2.3334522088        2.9588353471        1.9293243562
 C          2.1267011595        2.0003180813       -0.5019686256
 C          3.3206069696        1.3070741416       -0.5566362765
 C          3.9399869500        1.1232637038       -1.7823155467
 C          3.3563650001        1.6338690057       -2.9313874459
 C          2.1611157100        2.3311019354       -2.8600241950
 C          1.5378464597        2.5213596131       -1.6356830048
 H          0.6071907596        3.0588273728       -1.5578046141
 H          1.7068425701        2.7266458068       -3.7542435244
 H          3.8346624804        1.4856965674       -3.8865610061
 H          4.8690092501        0.5788888041       -1.8360234474
 H          3.7379406495        0.9238304300        0.3609272729
 H          0.1672737787        4.0503371475        1.4808253076
 H         -2.1782988314        4.3506817666        1.7089364575
 H         -4.4335584012        3.4363597269        1.3096090054
 H         -4.7221693405        1.2911497789        0.1511837716
 H         -2.4156511798       -0.2167149171       -1.9064947505
 C         -4.0836035899       -0.9790390393       -0.8035705522
 C         -5.1155486597       -0.6227493177       -1.8306379118
 C         -4.4643438895       -1.9717739076       -1.8595412440
 H         -5.0452570894       -2.8344010282       -1.5697291056
 H         -3.7382689493       -2.1749040761       -2.6331089342
 H         -6.1486177498       -0.5608451585       -1.5234194619
 H         -4.8372183097        0.0892765236       -2.5926002405
 H         -4.4129611301       -1.1766733112        0.2103146574
