  62
        -98.94084372
 C          0.1101682166        2.1278950237        0.2713619419
 C          0.8568537800        1.7615206106       -0.8744788414
 C          2.2443938087        1.2992006324       -0.6411202352
 C          2.7357644309        1.2628336086        0.6103784652
 C          4.0996123255        0.8841729999        1.1512150120
 C          5.1664399612        0.2996660046        0.2308570078
 C          4.8970300764       -1.1387060640       -0.2175181507
 H          5.6021063152       -1.3941998423       -1.0109392201
 H          5.0918975862       -1.8035288739        0.6275523144
 C          3.4763948546       -1.4248285995       -0.6992419612
 H          3.3920667010       -2.4977146341       -0.8947391093
 H          2.7663270920       -1.1930441737        0.0961853866
 C          3.0522600212       -0.6952506550       -1.9716570998
 H          3.7325368514       -0.9519701122       -2.7871084452
 H          2.0550004296       -1.0547335168       -2.2443355740
 C          2.9835223832        0.8356037377       -1.8633291819
 H          2.4151368994        1.2040253399       -2.7228553434
 H          3.9756283432        1.2780592217       -1.9141369669
 H          5.3183346601        0.9523441683       -0.6239681876
 H          6.1025523048        0.2979400933        0.7954976828
 H          3.9194430817        0.1884127667        1.9769643754
 H          4.4950241562        1.8003971942        1.6030654487
 O          1.9833879850        1.6503471045        1.6832512804
 C          0.6728899423        2.0680222946        1.5484176427
 O          0.1208461546        2.3626974650        2.6268112437
 O          0.4172535611        1.8141776755       -2.0527397015
 C         -1.3448557767        2.5683751274        0.2384102190
 C         -2.2631917657        1.3709600788        0.3281888745
 C         -3.2763193637        1.3287700098        1.2790155180
 C         -4.1077874880        0.2278179470        1.3751463078
 C         -3.9246312325       -0.8626663828        0.5446787085
 C         -2.9115939174       -0.8338010059       -0.4071082839
 C         -2.1041480719        0.2887504642       -0.5265421916
 H         -1.3398511991        0.3048566953       -1.2881972852
 N         -2.6876307651       -1.9408703604       -1.2457455416
 S         -1.1338667034       -2.5547179004       -1.3732536138
 O         -0.3135158770       -1.6882375128       -2.1746167964
 O         -1.3229085494       -3.8984836896       -1.8769936563
 C         -0.5411066522       -2.6220834161        0.3070823341
 C          0.1116980209       -1.5313135965        0.8438302622
 C          0.4946358858       -1.5673957295        2.1755810642
 C          0.2254538169       -2.6908755833        2.9415752187
 C         -0.4236120155       -3.7830998447        2.3852858277
 C         -0.8185877486       -3.7477480132        1.0581437788
 H         -1.3217738155       -4.5749848224        0.5842062633
 H         -0.6261525067       -4.6566737359        2.9835805982
 H          0.5255027079       -2.7116007996        3.9773792723
 H          0.9892084244       -0.7103536556        2.6073780145
 H          0.3132165944       -0.6729469910        0.2222644420
 H         -3.3427720084       -2.6973796063       -1.1057786036
 H         -4.5585485547       -1.7321130218        0.6299045199
 H         -4.8935518181        0.2103413325        2.1145968796
 H         -3.4003055213        2.1622456916        1.9541422939
 H         -1.4933975106        3.1659559851        1.1488029927
 C         -1.7141861026        3.4258182000       -0.9557054885
 C         -2.8620343217        4.3810952911       -0.8363979817
 C         -1.4579825617        4.9006387064       -0.9076142559
 H         -1.1305276263        5.3943251059       -1.8100932195
 H         -1.0158779826        5.3013851683       -0.0067409778
 H         -3.5054943014        4.5193017309       -1.6916222330
 H         -3.3734140416        4.4370875688        0.1125711570
 H         -1.5693774309        2.9270184814       -1.9047707280
