  62
        -98.93696916
 C         -2.1323240996       -1.1598635179        0.0599246749
 C         -2.1153254932        0.0100097796       -0.7409004304
 C         -2.8194856201        1.1738846096       -0.1756489031
 C         -3.3883159056        1.1012869335        1.0395580753
 C         -4.1135264463        2.2111451193        1.7518366199
 C         -5.5841061882        2.3625361239        1.3390683342
 C         -5.8126796959        2.9556176917       -0.0517692614
 H         -6.8726426260        3.2075303074       -0.1222731572
 H         -5.2494093041        3.8844369097       -0.1462644706
 C         -5.4520737893        2.0139567890       -1.2091866413
 H         -5.3811565769        0.9893575984       -0.8369417648
 H         -6.2504726524        2.0298870461       -1.9544870477
 C         -4.1515933034        2.3667297238       -1.9316870316
 H         -4.2547419186        3.3380127541       -2.4206845116
 H         -3.9739694416        1.6166609483       -2.7066815737
 C         -2.9162058171        2.4069665770       -1.0226087057
 H         -2.0227195176        2.4462847660       -1.6513934097
 H         -2.9379245870        3.2981203336       -0.3952849778
 H         -6.0658952599        1.3841819614        1.4018061414
 H         -6.0618846076        3.0165801754        2.0720495817
 H         -4.0773643431        1.9706225557        2.8165195451
 H         -3.5886340754        3.1531770079        1.5903959088
 O         -3.3523527780       -0.0307194712        1.7932028264
 C         -2.7374026719       -1.1766077959        1.3197948617
 O         -2.7991690615       -2.1470173102        2.1025309434
 O         -1.5650336877        0.1064414267       -1.8670855682
 C         -1.4565929046       -2.4673861446       -0.3214258527
 C         -0.1101318195       -2.5774942930        0.3490225939
 C          0.2953491615       -3.7708253930        0.9358221723
 C          1.5397683939       -3.8746665370        1.5308094443
 C          2.4044144690       -2.7958235092        1.5418223402
 C          2.0023834625       -1.5924005465        0.9715604885
 C          0.7496552373       -1.4892030631        0.3841948745
 H          0.4494812466       -0.5493509883       -0.0558451577
 N          2.8446244135       -0.4707323345        1.0070159268
 S          2.7719552956        0.6361347503       -0.2670058636
 O          1.7150385725        1.5786113623        0.0000562120
 O          2.7250386365       -0.0692895175       -1.5267411584
 C          4.3542725545        1.4368362282       -0.0750017611
 C          4.4811979970        2.4503332308        0.8560557850
 C          5.7192369520        3.0480804474        1.0312311172
 C          6.8040314218        2.6245799939        0.2776371470
 C          6.6609989886        1.6081693551       -0.6548908121
 C          5.4257165603        1.0055536442       -0.8342680772
 H          5.2640271542        0.2184198239       -1.5530998945
 H          7.5047943895        1.2835514983       -1.2420717430
 H          7.7661784771        3.0917793035        0.4160445311
 H          5.8330865356        3.8408200763        1.7528810852
 H          3.6077641935        2.7508458907        1.4111615669
 H          3.7962592502       -0.6965223660        1.2623188877
 H          3.3784683538       -2.8761980638        1.9997160785
 H          1.8423916985       -4.8061967457        1.9843010343
 H         -0.3794583655       -4.6141860307        0.9349815571
 H         -2.0934975474       -3.2635192803        0.0999829813
 C         -1.3735493524       -2.7085722911       -1.8212420154
 C         -0.1376585954       -2.4659887288       -2.6284462259
 C         -0.5890460194       -3.8685628959       -2.3604996875
 H         -1.0091766578       -4.4392425903       -3.1748411613
 H         -0.0124914822       -4.4525141313       -1.6592606898
 H         -0.2648102485       -2.0540041338       -3.6181342078
 H          0.7412751631       -2.0904696925       -2.1258788478
 H         -2.3148283252       -2.4871175255       -2.3141574454
