  62
        -98.94064506
 C         -1.5965656396       -0.5554749482        0.7857254333
 C         -2.9553596668       -0.6693814298        1.1806144225
 C         -3.9439513430       -0.7363147343        0.0994175635
 C         -3.5357391038       -0.6767076681       -1.1806363668
 C         -4.4183539422       -0.7534534957       -2.3967704092
 C         -5.0475016073        0.5882701419       -2.7959896724
 C         -6.1645185741        1.0822531994       -1.8757442848
 H         -6.6582428313        1.9104976822       -2.3879593972
 H         -6.9043694580        0.2914629660       -1.7476786170
 C         -5.6840832084        1.5684775147       -0.5011535257
 H         -4.6079978209        1.7553108784       -0.5367968045
 H         -6.1648834081        2.5201204691       -0.2633227068
 C         -5.9834991487        0.6094254631        0.6511797047
 H         -5.5683186441        1.0355944097        1.5680304129
 H         -7.0642406786        0.5196460867        0.7812489729
 C         -5.3942775463       -0.7960254839        0.4733136845
 H         -5.9584022237       -1.3480520047       -0.2781295498
 H         -5.4713662125       -1.3227074841        1.4276511292
 H         -4.2580276389        1.3419179032       -2.8490984450
 H         -5.4596984189        0.4687159612       -3.8006782843
 H         -3.7857476441       -1.0944318842       -3.2192222041
 H         -5.2046004575       -1.4911112125       -2.2333537463
 O         -2.2270089294       -0.5538830360       -1.5218108277
 C         -1.2268744647       -0.4639323048       -0.5575656804
 O         -0.0877519512       -0.3224016806       -1.0363430957
 O         -3.3253914926       -0.7136467618        2.3838639956
 C         -0.5607375497       -0.4465558233        1.8913001126
 C          0.2729093976        0.7946028286        1.7006184286
 C         -0.2958722600        2.0273644277        2.0105749615
 C          0.4256869598        3.1964225015        1.8701578232
 C          1.7291858698        3.1563933769        1.4081103593
 C          2.3022361878        1.9347809858        1.0790190290
 C          1.5776902310        0.7596807418        1.2314608424
 H          2.0307794649       -0.1813179805        0.9661770788
 N          3.6333089498        1.8689519263        0.6171900788
 S          3.8891290672        1.3128803932       -0.9532485318
 O          5.1821783644        1.8635647583       -1.3116757331
 O          2.7944822808        1.6713113067       -1.8237141061
 C          4.0577541006       -0.4503943829       -0.8014622785
 C          3.0771882281       -1.2867247454       -1.2944663599
 C          3.2693903756       -2.6575787002       -1.2045919459
 C          4.4216215690       -3.1613644835       -0.6212145168
 C          5.3911189205       -2.3043129007       -0.1214997900
 C          5.2122477079       -0.9342540819       -0.2163356091
 H          5.9469888327       -0.2311670465        0.1391214813
 H          6.2840021536       -2.7000587990        0.3350444559
 H          4.5626528851       -4.2289628757       -0.5554698647
 H          2.5128414395       -3.3237843085       -1.5883056857
 H          2.1796517372       -0.8579131608       -1.7121717781
 H          4.1334542938        2.7410484456        0.7292684579
 H          2.2999784358        4.0664803752        1.2948401246
 H         -0.0271454474        4.1443540398        2.1194928032
 H         -1.3167705060        2.0553963136        2.3670178532
 H         -1.1640866721       -0.3008163648        2.8029461176
 C          0.2696798627       -1.6975908021        2.1298200321
 C         -0.3733554669       -3.0508150623        2.0707949922
 C          0.6514800319       -2.6617126448        1.0500889997
 H          1.6287361991       -3.1185730637        1.1041661690
 H          0.3252206444       -2.4502765012        0.0448745133
 H         -0.1078386961       -3.7829558642        2.8181765451
 H         -1.4084671228       -3.0931005681        1.7637087039
 H          0.9987637911       -1.5446204107        2.9198857959
