  62
        -98.94597123
 C         -1.5706715919       -1.4823291419       -0.1747794296
 C         -1.5321162670       -0.1002066286       -0.4815546399
 C         -2.8384311642        0.5425024351       -0.6715072083
 C         -3.9648879028       -0.1850424712       -0.5654776001
 C         -5.3678425930        0.3285033214       -0.7455547847
 C         -5.9574162523        0.9823576988        0.5118942007
 C         -5.3766657356        2.3516580638        0.8683253872
 H         -5.4217696349        3.0022699671       -0.0054997958
 H         -6.0269556643        2.7854930360        1.6306906611
 C         -3.9405436862        2.3104236590        1.4098644828
 H         -3.6985506884        1.2919938927        1.7224481354
 H         -3.8686290365        2.9420150642        2.2982064041
 C         -2.8756415584        2.7903654945        0.4233856755
 H         -3.0251993027        3.8513071079        0.2116123831
 H         -1.8959009821        2.6716644798        0.8930319665
 C         -2.8572056102        2.0227019931       -0.9045443212
 H         -3.7141671682        2.3039947332       -1.5159692532
 H         -1.9395521847        2.2825380198       -1.4371644464
 H         -5.8252313819        0.2998557198        1.3547659373
 H         -7.0308905310        1.0989844942        0.3453800663
 H         -5.3954219540        1.0378350063       -1.5731244868
 H         -5.9848428264       -0.5341315767       -1.0062390337
 O         -3.9557250933       -1.5170285034       -0.2872085386
 C         -2.7647678678       -2.1919122970       -0.0642664622
 O         -2.9018002736       -3.3995025442        0.2210871373
 H          2.3616443700       -1.3552154499       -0.0150729803
 C          1.8519428581       -1.1131969135        0.9013295099
 C          0.5390265616       -1.5039162441        1.1058930023
 C         -0.0638122929       -1.2034732232        2.3253820253
 C          0.6232451680       -0.5089094111        3.3011527070
 C          1.9226404163       -0.0865037578        3.0783571431
 C          2.5374758118       -0.3938138275        1.8713432206
 N          3.8554778280        0.0074665204        1.6193833737
 S          4.3685832766        0.3558808218        0.0699714448
 O          4.5989692588       -0.8660597256       -0.6606829178
 O          5.5359495379        1.1902023643        0.2692079163
 C          3.0825818228        1.3111113982       -0.7133442346
 C          2.6110563166        2.4398633114       -0.0751633933
 C          1.6422388114        3.2060098553       -0.7002464175
 C          1.1680682565        2.8363844901       -1.9481507976
 C          1.6525963266        1.7017660301       -2.5766547882
 C          2.6181548374        0.9291363691       -1.9540952692
 H          3.0159649193        0.0331988220       -2.4050427363
 H          1.2731125824        1.4096644601       -3.5433325936
 H          0.4105051824        3.4330776809       -2.4321004667
 H          1.2537191166        4.0848224423       -0.2106339688
 H          3.0014887092        2.7071200008        0.8936968031
 H          4.2581594838        0.6289702326        2.3044259199
 H          2.4560836028        0.4717756759        3.8324033682
 H          0.1404979789       -0.2814187276        4.2398298948
 H         -1.0862113484       -1.5162199767        2.4918983774
 C         -0.2668557048       -2.2252644952        0.0537391757
 H         -0.5361389315       -3.2201121002        0.4370892192
 C          0.4697903497       -2.3863810289       -1.2595665318
 C          1.4332793553       -3.5173212520       -1.4525455953
 C          0.1151534022       -3.5246169307       -2.1659994735
 H          0.1027288796       -3.3515447556       -3.2316403941
 H         -0.6481495758       -4.2098367888       -1.8265069862
 H          1.5683683704       -4.2039008244       -0.6302829372
 H          2.3329038726       -3.3387281575       -2.0228629889
 H          0.7023263893       -1.4333239936       -1.7219420176
 O         -0.4693664823        0.5607682391       -0.5897077931
