  62
        -98.92990306
 C         -2.4322321569       -1.0608540184        0.5454710565
 C         -2.5127230519        0.2543601248        1.0647716314
 C         -3.7471028145        1.0183217848        0.8009316379
 C         -4.7347541213        0.4238097917        0.1064740500
 C         -6.0600829341        1.0010193346       -0.3146759811
 C         -5.9351191416        1.9668001177       -1.5042348082
 C         -4.7666747876        2.9454494982       -1.4189048238
 H         -3.8343041710        2.3853213285       -1.3235846499
 H         -4.7206182338        3.4911316596       -2.3650983226
 C         -4.8586499777        3.9724025919       -0.2927881578
 H         -5.7718809767        4.5588715163       -0.4162701577
 H         -4.0094572405        4.6517515224       -0.4035379474
 C         -4.8319411716        3.4097280188        1.1297741275
 H         -5.7933393691        2.9821752658        1.4010428443
 H         -4.6629014407        4.2504085336        1.8090652705
 C         -3.7154769345        2.4048688501        1.3973124830
 H         -2.7567667663        2.8415132801        1.0932830435
 H         -3.6301328090        2.2571907804        2.4810092041
 H         -6.8704297575        2.5209252704       -1.5982656659
 H         -5.8025581039        1.3704548810       -2.4100771496
 H         -6.5403701240        1.4856165166        0.5301677760
 H         -6.6862776995        0.1583251385       -0.6155357980
 O         -4.6225799978       -0.8504680442       -0.3606674681
 C         -3.4870063877       -1.6226174978       -0.1744740198
 O         -3.5634071591       -2.7539399086       -0.6863362955
 O         -1.5823605487        0.7812632616        1.7363778771
 C         -1.1477750091       -1.8237517152        0.8142081524
 C         -0.1661580857       -1.6359848701       -0.3147104930
 C         -0.5289697144       -1.8864071431       -1.6351405067
 C          0.3840874770       -1.7037853863       -2.6570830415
 C          1.6671083299       -1.2620419085       -2.3856692953
 C          2.0405405537       -1.0100663837       -1.0706056712
 C          1.1234861442       -1.2015299963       -0.0455170504
 H          1.4190392919       -0.9839751654        0.9698956274
 N          3.3506930008       -0.5982323300       -0.7700254249
 S          3.5879162965        0.5298673868        0.4663855042
 O          3.4903027982       -0.1466361482        1.7348397496
 O          2.7236238639        1.6717098487        0.2693516708
 C          5.2862386482        0.9774017669        0.1576496921
 C          6.2821975673        0.1098955509        0.5652837149
 C          7.6033129045        0.4382991031        0.3064542781
 C          7.9052580764        1.6215908248       -0.3515560718
 C          6.8952803442        2.4829651044       -0.7526681787
 C          5.5714912046        2.1598699694       -0.4981362580
 H          4.7534162868        2.8017969723       -0.7833779337
 H          7.1329446953        3.4036031972       -1.2608722953
 H          8.9343998563        1.8755521210       -0.5505719335
 H          8.3915386050       -0.2274314321        0.6189661027
 H          6.0002112501       -0.7927575850        1.0815952255
 H          3.8682997864       -0.3334251542       -1.5979725126
 H          2.3755706210       -1.1144857514       -3.1866658993
 H          0.0912195180       -1.9011430433       -3.6774078940
 H         -1.5313856203       -2.2264184888       -1.8473517429
 H         -0.7150647044       -1.3370850299        1.7038011027
 C         -1.3769140191       -3.2873995769        1.1665904832
 C         -0.9567687188       -4.4286651302        0.2946537069
 C         -0.2121029855       -4.1463147909        1.5625560392
 H         -0.3262822620       -4.8221063597        2.3965181714
 H          0.7722056149       -3.7090222011        1.4789083840
 H         -1.6083675619       -5.2878856895        0.2531851798
 H         -0.4715016685       -4.2057529322       -0.6420582841
 H         -2.2962326916       -3.4270015346        1.7264820746
