  62
        -98.93553145
 C         -1.7872812059       -1.1415814637        0.2650873132
 C         -2.3840695568       -0.0900205596        1.0077765578
 C         -3.8109595822        0.1584127409        0.7656838852
 C         -4.4775958544       -0.6123147650       -0.1119267699
 C         -5.9457822732       -0.5465102443       -0.4407010480
 C         -6.4363091849        0.7440021499       -1.1243654877
 C         -6.9794463458        1.8039504294       -0.1581270327
 H         -7.8639351930        2.2645759095       -0.6028073570
 H         -7.3101159909        1.3096325347        0.7561414882
 C         -6.0152191440        2.9401430999        0.1959195595
 H         -5.9780515914        3.6487887259       -0.6346710852
 H         -6.4234509129        3.4686476882        1.0601612273
 C         -4.5770419168        2.5234306060        0.5054623477
 H         -4.0574067486        2.2754511168       -0.4234063317
 H         -4.0550476844        3.3848093680        0.9275904592
 C         -4.4464508135        1.3246107433        1.4649951945
 H         -5.4192375334        1.0466775392        1.8683947425
 H         -3.7896152868        1.5846243604        2.2977044714
 H         -5.6351352538        1.1593714026       -1.7351216287
 H         -7.2424433291        0.4557650793       -1.8008735898
 H         -6.1318721913       -1.3936593837       -1.1039851976
 H         -6.5165783371       -0.7092645549        0.4764002904
 O         -3.8722126551       -1.6168766591       -0.7980567856
 C         -2.5224078041       -1.9014039165       -0.6456304748
 O         -2.1333473144       -2.8428031434       -1.3625459620
 O         -1.7542147637        0.6011667327        1.8536868335
 C         -0.3092562631       -1.4035545040        0.5079334424
 C          0.5253854326       -0.8044397142       -0.5991279361
 C          0.5801791725       -1.3754279147       -1.8670578688
 C          1.3333812819       -0.7880819671       -2.8664987296
 C          2.0575131078        0.3654997180       -2.6210646700
 C          2.0072173487        0.9461985346       -1.3599030198
 C          1.2444135208        0.3587819149       -0.3593155419
 H          1.1976893173        0.8342751884        0.6091116476
 N          2.7238511803        2.1241313141       -1.0856124711
 S          3.6560320366        2.2039622015        0.3010207902
 O          2.8193729087        2.3457351246        1.4643602586
 O          4.5877447835        3.2814474681        0.0486040477
 C          4.5223088544        0.6455782336        0.3409684486
 C          5.5498395489        0.4505030001       -0.5615646590
 C          6.1985398365       -0.7729581964       -0.5855371027
 C          5.8078811016       -1.7772529653        0.2871693308
 C          4.7778908277       -1.5646699043        1.1899060540
 C          4.1239458159       -0.3427120368        1.2170976819
 H          3.3194258901       -0.1344798935        1.9043448153
 H          4.4798189714       -2.3465529003        1.8702473991
 H          6.3105955897       -2.7311904229        0.2671436708
 H          7.0034217318       -0.9405128436       -1.2828383950
 H          5.8336188125        1.2613206467       -1.2127533371
 H          3.2355675170        2.4877252345       -1.8768471292
 H          2.6466959274        0.8215989711       -3.4022061239
 H          1.3612777874       -1.2368757993       -3.8478126916
 H          0.0025359331       -2.2631786325       -2.0696517816
 H         -0.0747223597       -0.8554956021        1.4308762894
 C          0.0086079448       -2.8691928439        0.7264293178
 C          1.2706997677       -3.2347079382        1.4455093931
 C         -0.0562221485       -3.4299879549        2.1140543141
 H         -0.4285520233       -4.4348501154        2.2454852250
 H         -0.3302605569       -2.7563618024        2.9133570261
 H          1.8163028555       -4.1061481251        1.1187152351
 H          1.8935491635       -2.4239716274        1.7910799942
 H         -0.3197639169       -3.5103391276       -0.0804038672
