  62
        -98.93387021
 C         -2.3310137286        0.0961471334       -0.1913179181
 C         -3.4810075767        0.3942778877       -0.9583152632
 C         -4.7271090200       -0.2792901779       -0.5579370122
 C         -4.7097420972       -1.1307400987        0.4821249594
 C         -5.8446138123       -1.9547557018        1.0375761019
 C         -7.2132267300       -1.2739670380        1.1773494193
 C         -7.1626634017        0.2253567847        1.5053988881
 H         -7.8054073516        0.4223338145        2.3654422834
 H         -6.1478253299        0.5137281190        1.7848049044
 C         -7.6430281246        1.1058369095        0.3492235052
 H         -8.5368885289        0.6544355509       -0.0868032652
 H         -7.9307236424        2.0819112952        0.7472197650
 C         -6.6175511912        1.3531413138       -0.7564573209
 H         -5.8211864423        2.0036580971       -0.3846207538
 H         -7.1177263853        1.8907869320       -1.5655994740
 C         -5.9549297654        0.0936784095       -1.3381970850
 H         -5.6091772123        0.3323875291       -2.3476749836
 H         -6.6604114187       -0.7312902750       -1.3986884942
 H         -7.7476397316       -1.8017847791        1.9689925527
 H         -7.7869378378       -1.4173303794        0.2628355922
 H         -5.9515215045       -2.8482140809        0.4155924422
 H         -5.4985442880       -2.2865457710        2.0193381958
 O         -3.5736692379       -1.3954029909        1.1889929736
 C         -2.3642895634       -0.7931081709        0.8811058134
 O         -1.4198965136       -1.1283359558        1.6210525017
 O         -3.4655119028        1.1783177396       -1.9452427546
 C         -1.0181637173        0.7686346059       -0.5433229781
 C          0.0462894581       -0.2578236539       -0.8416871527
 C         -0.2471854184       -1.3023468134       -1.7156267455
 C          0.7059318216       -2.2513322397       -2.0283905658
 C          1.9800837429       -2.1698226136       -1.4938231113
 C          2.2842455380       -1.1312168954       -0.6231631236
 C          1.3194061497       -0.1861179386       -0.3006288977
 H          1.5862327378        0.6062698758        0.3781962827
 N          3.5608180313       -1.0255834136       -0.0483169653
 S          4.1997052148        0.5186040941        0.1944710921
 O          3.7349909638        1.0265108552        1.4607020077
 O          3.9420977202        1.3475884585       -0.9611747492
 C          5.9391326261        0.1379608905        0.3028664434
 C          6.7353154441        0.2868900186       -0.8171395175
 C          8.0805951675       -0.0355818502       -0.7312969709
 C          8.6035233220       -0.5018142974        0.4654728006
 C          7.7921639563       -0.6455218125        1.5813338146
 C          6.4465440685       -0.3235982675        1.5029062092
 H          5.7802367769       -0.4096353776        2.3454901368
 H          8.2027674479       -1.0055116798        2.5108453391
 H          9.6507065288       -0.7518183735        0.5300499161
 H          8.7145290079        0.0785447822       -1.5958011384
 H          6.2867466664        0.6615867540       -1.7231143215
 H          4.2354260288       -1.6518248496       -0.4658761886
 H          2.7274407649       -2.9079341843       -1.7424587856
 H          0.4594582541       -3.0574816250       -2.7031537870
 H         -1.2389321947       -1.3601073133       -2.1438786609
 H         -1.2149201732        1.3301699128       -1.4698097824
 C         -0.6222884756        1.7494228386        0.5402991038
 C          0.2341295687        2.9341844741        0.2107157871
 C         -1.2160036226        3.1249258397        0.5363009708
 H         -1.4781491937        3.5767301155        1.4812174649
 H         -1.8924245001        3.3696505591       -0.2696981717
 H          0.9758501454        3.2479244655        0.9305741421
 H          0.5492411435        3.0526329020       -0.8153778377
 H         -0.4764249336        1.2692712818        1.5024517501
