  62
        -98.94075886
 C          2.3925258413        1.2425744531        0.1259335643
 C          2.3001614022       -0.1691803757        0.0329518870
 C          3.4324293538       -0.9236492245        0.5981995652
 C          4.4426937127       -0.2652271198        1.1925045209
 C          5.6775458007       -0.9060747252        1.7549711939
 C          6.7924788202       -0.9831730343        0.7025183431
 C          6.3379835846       -1.5615003010       -0.6375626156
 H          5.6221902163       -0.8764983195       -1.0977224880
 H          7.2129339007       -1.5972010907       -1.2901552279
 C          5.7114661515       -2.9599278359       -0.5457939417
 H          6.1223161793       -3.5809858616       -1.3445626498
 H          5.9846447456       -3.4274243935        0.4008492982
 C          4.1895521041       -2.9853741997       -0.7011814045
 H          3.8785369105       -4.0245289959       -0.8386565680
 H          3.9042945103       -2.4383220899       -1.6036256585
 C          3.3880219691       -2.4212460145        0.4791435987
 H          2.3359946105       -2.6789199601        0.3220765157
 H          3.7195624711       -2.8918278058        1.4070732470
 H          7.1745700411        0.0253380035        0.5282016269
 H          7.6056014153       -1.5896374363        1.1053592913
 H          6.0245994257       -0.3029500997        2.5956478343
 H          5.4315488593       -1.9037356051        2.1134499617
 O          4.4718059320        1.0864637358        1.3090460051
 C          3.4578294824        1.8677741180        0.7826249059
 O          3.6131135437        3.0914319072        0.9656424243
 H         -0.6185610171        0.7730544079       -1.7650883842
 C         -0.9097691338        1.0077767716       -0.7531952829
 C         -0.0411334380        1.7119226303        0.0636974833
 C         -0.4187863038        1.9663863934        1.3787274589
 C         -1.6406668988        1.5329554113        1.8571423754
 C         -2.5075199741        0.8307607187        1.0376991052
 C         -2.1294284958        0.5517994822       -0.2683394115
 N         -2.9948649731       -0.1607362649       -1.1118238144
 S         -3.9007970528       -1.4345286127       -0.5102245056
 O         -3.2427053959       -2.1142382507        0.5809747584
 O         -4.2230978176       -2.2396534078       -1.6685667744
 C         -5.3887207353       -0.6435558570        0.0707308796
 C         -5.8551084589       -0.9026325250        1.3445260741
 C         -7.0197241311       -0.2837954469        1.7719356510
 C         -7.6951569290        0.5779595250        0.9216887124
 C         -7.2161030029        0.8249270030       -0.3562403549
 C         -6.0533301238        0.2084560968       -0.7895643158
 H         -5.6506787242        0.3719858723       -1.7750699283
 H         -7.7442096173        1.4955482039       -1.0148308976
 H         -8.6001141898        1.0596380058        1.2569458742
 H         -7.3938299048       -0.4759456018        2.7647581617
 H         -5.2941676105       -1.5757801082        1.9736328164
 H         -2.5903473351       -0.3924434034       -2.0072907046
 H         -3.4555154170        0.4781329220        1.4093134676
 H         -1.9223023632        1.7402765959        2.8784610787
 H          0.2647138562        2.5015339719        2.0240461757
 C          1.3142430350        2.1699052050       -0.4125433105
 H          1.5233915748        3.1442301810        0.0570848582
 C          1.3702755000        2.3965414391       -1.9163818788
 C          2.6904687585        2.5427543996       -2.6110837115
 C          1.8248281488        1.3525472854       -2.8895465679
 H          1.3258762044        1.2967539268       -3.8465261833
 H          2.1242155170        0.3923863483       -2.5004559352
 H          2.7917722398        3.2985514242       -3.3751398874
 H          3.5812204701        2.4000015083       -2.0162393093
 H          0.5743490931        3.0555233272       -2.2502124518
 O          1.3402987776       -0.7871148726       -0.4971544524
