  62
        -98.93449414
 C         -2.6317113074       -0.4868359033        0.1562175062
 C         -2.1413169282       -1.2687416592       -0.9190263294
 C         -1.3575726345       -2.4739908440       -0.5949554879
 C         -1.1525172529       -2.7757558426        0.6999730162
 C         -0.3746086779       -3.9202135090        1.2981591363
 C          1.1427174284       -3.7199305101        1.2102094081
 C          1.6536819928       -3.3602556092       -0.1815543555
 H          1.2551683836       -2.3850961003       -0.4660467080
 H          2.7400795364       -3.2516073813       -0.1133246078
 C          1.3525053163       -4.3864417674       -1.2731313478
 H          1.9256189246       -4.0882759269       -2.1543068482
 H          1.7169642757       -5.3656754961       -0.9548359374
 C         -0.1152891165       -4.5189705527       -1.6961500110
 H         -0.1273533551       -4.9866758303       -2.6847252637
 H         -0.6662868598       -5.1834531175       -1.0348324374
 C         -0.8593755940       -3.1938824732       -1.8237211181
 H         -0.2376845763       -2.4736147263       -2.3684246506
 H         -1.7461494562       -3.3427632956       -2.4511918701
 H          1.6281181358       -4.6349739056        1.5572529142
 H          1.4199544730       -2.9066974340        1.8872664398
 H         -0.6583053099       -3.9666992263        2.3524341963
 H         -0.6615592617       -4.8591727274        0.8337660277
 O         -1.6631110441       -2.0096661902        1.7052611017
 C         -2.3653548848       -0.8351410330        1.4795024511
 O         -2.6989067011       -0.2501960449        2.5274309727
 H         -0.8193438785        1.1575986072        0.7320877402
 C         -1.0158662406        1.7994199127       -0.1147929133
 C         -2.2597730061        1.7776695261       -0.7262755734
 C         -2.4816223571        2.6207038955       -1.8089550203
 C         -1.4768002469        3.4550477594       -2.2669863019
 C         -0.2207959370        3.4322670787       -1.6869557666
 C          0.0117343944        2.5866826579       -0.6092012445
 N          1.2791870976        2.4762239106       -0.0077361020
 S          1.7528332523        0.8803890238        0.3333031997
 O          1.3015777360        0.0049401294       -0.7222288615
 O          1.3417514071        0.5503275199        1.6750310272
 C          3.5289152828        1.0404727131        0.2850483810
 C          4.2251692764        0.5765078257       -0.8144358342
 C          5.6022012684        0.7331228278       -0.8506336378
 C          6.2545671130        1.3511724176        0.2053769427
 C          5.5417779319        1.8113187130        1.3029859803
 C          4.1655175674        1.6557019608        1.3468051521
 H          3.5703879276        1.9866845552        2.1819925234
 H          6.0524653564        2.2885745203        2.1236560157
 H          7.3257433237        1.4725626085        0.1745306525
 H          6.1586566270        0.3724748505       -1.7006142208
 H          3.6737070042        0.0978744162       -1.6078077310
 H          1.9975473680        2.9673729649       -0.5240426007
 H          0.5754472769        4.0516880300       -2.0711696874
 H         -1.6631627831        4.1070007519       -3.1068669392
 H         -3.4379325316        2.5985526318       -2.3105632145
 C         -3.3143311638        0.8133932623       -0.2367502418
 H         -3.9526080664        0.5677166166       -1.1022268758
 C         -4.2061421196        1.4116603815        0.8376833794
 C         -3.7683765547        2.5479494049        1.7073166994
 C         -4.8135148414        2.7716651651        0.6583019158
 H         -5.8352543746        2.9200053783        0.9728156626
 H         -4.5293652946        3.3402118220       -0.2135195493
 H         -4.0586991335        2.5238150949        2.7461583862
 H         -2.7815297151        2.9542471100        1.5441210515
 H         -4.8275678080        0.6594056477        1.3109069896
 O         -2.3599618126       -0.9675946624       -2.1253157003
