  62
        -98.93422822
 C         -1.2629406417       -1.5510692335        0.2439332452
 C         -2.1630428992       -0.8394832764        1.0770863389
 C         -3.1726849484        0.0009189241        0.4085439892
 C         -3.1571321725        0.0997354065       -0.9316041625
 C         -4.1388749405        0.7744750464       -1.8598912363
 C         -4.7919918891        2.0825950338       -1.4077271308
 C         -3.8313669714        3.0500333523       -0.7039593160
 H         -2.8099627757        2.6872993809       -0.8199769968
 H         -3.8927423727        4.0278941818       -1.1851125318
 C         -4.1385408846        3.2336100446        0.7831933033
 H         -3.6673937589        4.1569689533        1.1288293363
 H         -5.2169144224        3.3514853622        0.9092053993
 C         -3.6490989975        2.1073282839        1.6917718213
 H         -3.9759939397        2.3318629564        2.7097821158
 H         -2.5558416590        2.0873040270        1.7031452210
 C         -4.1423263645        0.6987280586        1.3193738013
 H         -4.1754218408        0.0992921610        2.2332706008
 H         -5.1435369119        0.7309990783        0.8965413512
 H         -5.1973546234        2.5544289626       -2.3048432267
 H         -5.6382792419        1.8690305555       -0.7572397305
 H         -3.5844622516        0.9475640359       -2.7863953945
 H         -4.9223277572        0.0457298724       -2.0922157973
 O         -2.1865156515       -0.4949084412       -1.6830688665
 C         -1.2241093831       -1.3348539698       -1.1334095690
 O         -0.4246718385       -1.7884768674       -1.9710614495
 H          1.3802934625       -0.6269321986        1.6704106858
 C          1.8337011148       -1.2892024659        0.9428179170
 C          1.0945818649       -2.3543769906        0.4428088254
 C          1.6868983903       -3.1922535069       -0.4937114373
 C          2.9789694264       -2.9581955426       -0.9288119862
 C          3.7123691080       -1.8969939706       -0.4294513183
 C          3.1335172338       -1.0607223154        0.5145600720
 N          3.8940532173        0.0198974951        1.0210373782
 S          4.1106927097        1.3183401389       -0.0118115324
 O          4.4985723962        0.8224215149       -1.3057156060
 O          5.0427805905        2.2035579271        0.6477984627
 C          2.5124494135        2.1084212709       -0.0914299209
 C          1.5010679461        1.5167145693       -0.8223545196
 C          0.2481696580        2.1099590711       -0.8257802016
 C          0.0292021453        3.2742979263       -0.1057467233
 C          1.0552579501        3.8538814247        0.6246750068
 C          2.3078756503        3.2637228327        0.6378562672
 H          3.1363164543        3.6780452415        1.1894978821
 H          0.8795821380        4.7594877453        1.1825049925
 H         -0.9463887475        3.7345419305       -0.1135388733
 H         -0.5479576997        1.6492713652       -1.3907534024
 H          1.6931396436        0.6103864812       -1.3761193488
 H          3.5625777131        0.3606313912        1.9132262078
 H          4.7149226015       -1.6925028780       -0.7676692537
 H          3.4207611553       -3.6100126038       -1.6671103845
 H          1.1212034277       -4.0123429399       -0.9042349224
 C         -0.3231749251       -2.5363173785        0.9164038883
 H         -0.3634338614       -2.2652947953        1.9838079205
 C         -0.7862136740       -3.9841461712        0.8186371603
 C         -2.2420930745       -4.3301754571        0.8998737618
 C         -1.4935348518       -4.5362435045       -0.3811368574
 H         -1.2678618433       -5.5478641631       -0.6856345887
 H         -1.6889274393       -3.8685414743       -1.2059397425
 H         -2.5348024206       -5.1972059517        1.4724883364
 H         -2.9465095845       -3.5127292076        0.9530943963
 H         -0.1023008755       -4.6564936509        1.3277945076
 O         -2.1460199495       -0.9274835622        2.3334458824
