  62
        -98.94666365
 C         -2.0017192046       -1.4454426782       -0.0966688579
 C         -1.7371693850       -0.1822990395       -0.6763420659
 C         -2.9044507118        0.6866234518       -0.8672100765
 C         -4.1314508941        0.2395841868       -0.5437027481
 C         -5.4202883780        0.9988386661       -0.7066338430
 C         -5.7339044135        1.9531893080        0.4540807550
 C         -4.8624667464        3.2082729467        0.5192854599
 H         -4.8738120153        3.7076714463       -0.4499531191
 H         -5.3288927644        3.8839601134        1.2389796342
 C         -3.4126423419        2.9498436302        0.9526582907
 H         -3.1220279758        3.6832094860        1.7081060134
 H         -3.3430709654        1.9651535502        1.4205693754
 C         -2.3861525828        3.0325599482       -0.1773620017
 H         -2.3422826062        4.0554161100       -0.5581491532
 H         -1.4067754135        2.7796840783        0.2373305442
 C         -2.6637026331        2.0843919911       -1.3513684006
 H         -3.5139699627        2.4410629370       -1.9320796915
 H         -1.7822361857        2.0640153943       -1.9971885362
 H         -6.7754689541        2.2647156032        0.3465234967
 H         -5.6482265509        1.4008018263        1.3927608013
 H         -5.4008105442        1.5566476041       -1.6433149730
 H         -6.2158153159        0.2526848069       -0.7629794204
 O         -4.3480563479       -1.0017444481       -0.0312087599
 C         -3.2917848710       -1.8590734044        0.2340451410
 O         -3.6252900855       -2.9424317535        0.7557011384
 O         -0.5888582556        0.2039638718       -1.0142911060
 C         -0.8523218881       -2.3963719830        0.1846822948
 C          0.1822080654       -1.7005705007        1.0356521804
 C         -0.2267014646       -1.0966064766        2.2229473343
 C          0.6787165012       -0.4376011386        3.0306907876
 C          2.0125504984       -0.3595569631        2.6678776328
 C          2.4332033095       -0.9653504044        1.4909839003
 C          1.5223082901       -1.6421075953        0.6889975059
 H          1.8790115222       -2.0981419842       -0.2186874849
 N          3.7878519084       -0.9291158454        1.1122332062
 S          4.2386310187       -0.3587278284       -0.3961316266
 O          3.6185963902       -1.1483730078       -1.4273512595
 O          5.6854772314       -0.3681726896       -0.3673026054
 C          3.6646693756        1.3301170731       -0.4468962030
 C          2.3293318683        1.5932451898       -0.6774284294
 C          1.9024314882        2.9126839916       -0.6655052993
 C          2.8038055849        3.9369900239       -0.4231682059
 C          4.1414224996        3.6534886132       -0.1906389903
 C          4.5766658069        2.3387056183       -0.1987809454
 H          5.6072857351        2.0711963822       -0.0294599851
 H          4.8429787930        4.4504755002       -0.0032727032
 H          2.4613593696        4.9598921622       -0.4168012776
 H          0.8599972114        3.1216859029       -0.8471162916
 H          1.6333797033        0.7903086295       -0.8623103144
 H          4.3939543626       -0.5248064346        1.8125423892
 H          2.7216942438        0.1615717708        3.2932123419
 H          0.3442274321        0.0265105885        3.9462639063
 H         -1.2712752977       -1.1503124170        2.5001114677
 H         -1.2763573712       -3.2273204112        0.7674009785
 C         -0.2995693296       -2.9473742563       -1.1129886067
 C          0.3600626661       -4.2922130648       -1.1387707128
 C         -0.9898524956       -4.1069552745       -1.7627542719
 H         -1.0685974780       -4.1231900774       -2.8395145131
 H         -1.8507823350       -4.5181099265       -1.2554398240
 H          1.2125674809       -4.4334463581       -1.7863115291
 H          0.4178923294       -4.8386213700       -0.2093672074
 H          0.0968898101       -2.1760971658       -1.7642748883
