  62
        -98.94005865
 C          1.2669967794        1.2125043914        0.0349988391
 C          2.1406623369        0.7679474596        1.0524751563
 C          2.7808751347       -0.5399651305        0.8355821886
 C          2.4830788802       -1.2438528223       -0.2702554268
 C          2.9803533074       -2.6120249885       -0.6640616952
 C          4.4789255263       -2.8993034708       -0.4867225309
 C          5.4023887899       -1.6840351109       -0.6551114163
 H          6.2030563967       -1.9413946744       -1.3510490547
 H          4.8498792854       -0.8489860185       -1.0889100085
 C          6.0502069583       -1.2399654183        0.6588375693
 H          6.3785919406       -2.1272426089        1.2047664442
 H          6.9412152799       -0.6503194648        0.4297400164
 C          5.1686913828       -0.3891456904        1.5725626358
 H          5.0266993545        0.6016620226        1.1323048680
 H          5.7013644388       -0.2459155145        2.5159521478
 C          3.7765117836       -0.9672237697        1.8752160314
 H          3.8135870452       -2.0489503118        1.9797226167
 H          3.4329023420       -0.5372814202        2.8202663105
 H          4.6519871646       -3.3395920840        0.4944370136
 H          4.7439114775       -3.6606037084       -1.2222587545
 H          2.4083858850       -3.3561994717       -0.1029960832
 H          2.7101665969       -2.7197786584       -1.7165272279
 O          1.6128332539       -0.7876146451       -1.2137193259
 C          0.9898841189        0.4441632128       -1.0957445348
 O          0.2318443501        0.7320895647       -2.0382354365
 O          2.3635537563        1.4250740286        2.1059377884
 C          0.5625712731        2.5479265889        0.1904028762
 C         -0.9300118332        2.3328116919        0.1542480244
 C         -1.7973800431        3.0741616972       -0.6360331379
 C         -3.1527924249        2.7894354352       -0.6488208294
 C         -3.6729104271        1.7695947838        0.1262708133
 C         -2.8145586587        1.0310375527        0.9310516671
 C         -1.4599326818        1.3191126610        0.9441520629
 H         -0.7940630195        0.7368989584        1.5698922488
 N         -3.3313367062       -0.0175889917        1.7241590388
 S         -4.0097503952       -1.3067286995        0.8952877236
 O         -5.2123537344       -0.8572796103        0.2421291448
 O         -4.1698011303       -2.3519385035        1.8810773399
 C         -2.7937494114       -1.7878009004       -0.3161232031
 C         -1.8575197082       -2.7414927199        0.0301239301
 C         -0.8889743665       -3.0946343832       -0.8947688629
 C         -0.8658004980       -2.4822265584       -2.1379199414
 C         -1.8058519463       -1.5185823367       -2.4660733780
 C         -2.7815420462       -1.1657864887       -1.5481340378
 H         -3.5307261866       -0.4234796641       -1.7700152143
 H         -1.7718600944       -1.0306333942       -3.4261018133
 H         -0.1049823161       -2.7489753977       -2.8540755340
 H         -0.1539868138       -3.8428949194       -0.6437925213
 H         -1.9142864263       -3.1983237902        1.0056157251
 H         -2.6575420627       -0.3751134002        2.3873263862
 H         -4.7217642244        1.5212042026        0.1107948354
 H         -3.8135169896        3.3689376707       -1.2756203349
 H         -1.4124609874        3.8692713677       -1.2529547260
 H          0.8362041156        2.9124120270        1.1918047796
 C          1.0614470786        3.5367586927       -0.8416761516
 C          1.0379049783        5.0072218087       -0.5529002955
 C          2.3419578901        4.2697525040       -0.5811067566
 H          3.0162298394        4.4413114301       -1.4067671786
 H          2.8421106092        4.0761740835        0.3567896477
 H          0.8188428864        5.6887136077       -1.3609853224
 H          0.6553748751        5.3228259373        0.4059539419
 H          0.8703779679        3.2092388775       -1.8573919913
