  62
        -98.93954225
 C         -1.4191523488       -1.7183726797       -0.2731476444
 C         -1.3239564787       -0.3957532160       -0.7648187313
 C         -2.5853821090        0.3698789977       -0.8235072893
 C         -3.7172684234       -0.1957056913       -0.3704189996
 C         -5.0811799315        0.4297042563       -0.2649715682
 C         -5.2762406227        1.0794272834        1.1161914834
 C         -4.8103731805        2.5311136368        1.2219021528
 H         -5.4878158241        3.1667319703        0.6476841969
 H         -4.8982173675        2.8231795020        2.2709362827
 C         -3.3766812722        2.7963562877        0.7554257156
 H         -2.7149606294        2.0139460581        1.1312959565
 H         -3.0511388423        3.7384773736        1.2000613142
 C         -3.2501626748        2.8931637018       -0.7715175944
 H         -2.7284732674        3.8144334330       -1.0375520565
 H         -4.2451499575        2.9668722701       -1.2096276634
 C         -2.4772477533        1.7430323224       -1.4287185058
 H         -2.7646322016        1.6771654893       -2.4838082866
 H         -1.4061217968        1.9656243611       -1.4079190556
 H         -4.7465005215        0.4681772883        1.8513686826
 H         -6.3377676235        1.0470034508        1.3702587349
 H         -5.8032233005       -0.3824770522       -0.3720060753
 H         -5.2421856257        1.1464701335       -1.0644441627
 O         -3.7537510769       -1.4607730896        0.1348570288
 C         -2.6239478277       -2.2524653143        0.1858041092
 O         -2.8132223286       -3.3927713359        0.6561600347
 O         -0.2446854519        0.1316406552       -1.1403236252
 C         -0.1912552489       -2.6109588056       -0.1969860096
 C          0.7577450276       -2.0430921121        0.8289992502
 C          0.4324343337       -2.1709739386        2.1778519761
 C          1.2577297109       -1.6513855598        3.1557890671
 C          2.4177266877       -0.9804465825        2.8079000685
 C          2.7445353224       -0.8387273011        1.4646424660
 C          1.9203300095       -1.3737616137        0.4831958488
 H          2.1991770466       -1.2493704502       -0.5488106648
 N          3.9174685921       -0.1699259507        1.0855179516
 S          3.9728289151        0.7852909825       -0.2797719158
 O          3.9860966469       -0.0309188231       -1.4675292491
 O          5.1532100216        1.6036766870       -0.0800732572
 C          2.5434282680        1.8533877365       -0.2587545329
 C          2.0466823265        2.2954535254       -1.4666812378
 C          1.0054829352        3.2083906953       -1.4727242687
 C          0.4746831108        3.6563797901       -0.2738404762
 C          0.9770785665        3.1954030576        0.9316678968
 C          2.0277282866        2.2926010404        0.9432962877
 H          2.4332089041        1.9284913114        1.8732203781
 H          0.5536950667        3.5358955051        1.8632356862
 H         -0.3401197870        4.3633823214       -0.2778850586
 H          0.6078659147        3.5598432038       -2.4118585335
 H          2.4756886155        1.9090434334       -2.3771861917
 H          4.4478299970        0.2357678909        1.8424931714
 H          3.0664818893       -0.5740086791        3.5691230958
 H          0.9968581508       -1.7653811613        4.1970586407
 H         -0.4805312774       -2.6861062832        2.4445332620
 H         -0.5492012388       -3.5812621873        0.1747763072
 C          0.4325665902       -2.8153028666       -1.5606958712
 C          1.3689110611       -3.9648447246       -1.7750749308
 C          0.0042417737       -3.9834627309       -2.3944417269
 H         -0.0801557924       -3.8508145310       -3.4626784552
 H         -0.7373005495       -4.6496421880       -1.9774714338
 H          2.2260329289       -3.8176216298       -2.4146285296
 H          1.5537960821       -4.6197793408       -0.9368055145
 H          0.6438845023       -1.8884683560       -2.0800859143
