  62
        -98.93284107
 C         -2.6330814641       -0.9191455175        0.3630482283
 C         -2.6581354545        0.2598106052        1.1455230460
 C         -3.4809323579        1.3702570887        0.6400726901
 C         -4.1313120886        1.2270355810       -0.5276200998
 C         -5.0632932688        2.1956804561       -1.2123943309
 C         -4.6702232534        3.6785452337       -1.2207876738
 C         -3.1608999032        3.9470210992       -1.3086740808
 H         -2.6307139775        3.0247746141       -1.5533812102
 H         -2.9728559660        4.6546498029       -2.1182532106
 C         -2.5842871256        4.5415307350       -0.0216376094
 H         -3.2703828691        5.3059714269        0.3494184345
 H         -1.6390403401        5.0365485119       -0.2566657420
 C         -2.3037352452        3.5370505575        1.0951266908
 H         -1.4623186872        2.8976974852        0.8140099978
 H         -1.9985710558        4.0969276771        1.9823921117
 C         -3.4796013325        2.6207001928        1.4722776923
 H         -3.3338697833        2.2945851280        2.5056796574
 H         -4.4276048310        3.1487209465        1.4064740834
 H         -5.0675661016        4.1670396073       -0.3322314262
 H         -5.1715058020        4.1312679495       -2.0780179147
 H         -5.1425717518        1.8326862305       -2.2400261562
 H         -6.0527835832        2.0904556788       -0.7576827888
 O         -4.0449848755        0.0880672720       -1.2708278223
 C         -3.2946392620       -1.0032816202       -0.8613936613
 O         -3.3081051027       -1.9569335240       -1.6614986708
 H          0.2352462357       -0.4209238736        0.8137731275
 C          0.3924456942       -1.2236782154        0.1040220824
 C         -0.5751221797       -2.2159179085       -0.0082646318
 C         -0.3686120090       -3.2460705246       -0.9149797988
 C          0.7740748006       -3.2674540499       -1.6970181866
 C          1.7292505117       -2.2737527367       -1.5906370603
 C          1.5362031009       -1.2420207923       -0.6797695906
 N          2.4953957507       -0.2161294385       -0.5689501470
 S          4.1160092691       -0.6937022493       -0.5025790864
 O          4.5695235791       -0.9550995484       -1.8455720476
 O          4.2750032558       -1.7797660314        0.4388515100
 C          4.8892030698        0.7867494946        0.1169159186
 C          5.2009996573        1.7968235159       -0.7731906029
 C          5.7834321231        2.9578289841       -0.2903532484
 C          6.0420343828        3.0889815169        1.0660808244
 C          5.7244132010        2.0659773403        1.9468566285
 C          5.1404299450        0.9025602073        1.4708783996
 H          4.8857141775        0.0782782340        2.1178381900
 H          5.9292590883        2.1695310143        3.0002723154
 H          6.4971805179        3.9927974630        1.4391879143
 H          6.0345319589        3.7544880963       -0.9718792689
 H          4.9909560402        1.6462684348       -1.8192047468
 H          2.2792597197        0.4169221033        0.1895652136
 H          2.6239989780       -2.2865182399       -2.1918570318
 H          0.9228325176       -4.0715426954       -2.4022039448
 H         -1.1057680633       -4.0247709743       -1.0189014768
 C         -1.8061957973       -2.0948610169        0.8566720527
 H         -1.4776159090       -1.8115781623        1.8669059109
 C         -2.6237965050       -3.3639234796        0.9516590596
 C         -2.1233026186       -4.4997883230        1.7913872078
 C         -3.3047307589       -3.6969686166        2.2440167023
 H         -4.2830454655       -4.1521133926        2.2075379299
 H         -3.1724681593       -3.0128365192        3.0695127966
 H         -1.1856443573       -4.3609158536        2.3083068385
 H         -2.2892362611       -5.5088726320        1.4464031048
 H         -3.1532158295       -3.6001911627        0.0367973062
 O         -2.0263472561        0.3777444391        2.2306407767
