  62
        -98.94495617
 C          1.9024892936        0.7338897963       -0.1447846288
 C          2.4797437946        0.1140272664        0.9884597194
 C          3.5374665338       -0.8680350035        0.7161394360
 C          3.8589712989       -1.1502376461       -0.5598629318
 C          4.9478464987       -2.0936469464       -0.9800327113
 C          6.2827207399       -1.3568773781       -1.1586136162
 C          6.6528456356       -0.4552345252        0.0190908327
 H          5.9329352981        0.3640444258        0.0804295530
 H          7.6256987463       -0.0120825422       -0.2041420530
 C          6.7175262802       -1.1746406639        1.3736292591
 H          7.6196611402       -0.8529295257        1.8981753127
 H          6.8002785087       -2.2509776363        1.2181527709
 C          5.5363500432       -0.8861110568        2.3019564811
 H          5.3927672197        0.1940144081        2.3865010790
 H          5.7868901823       -1.2618414375        3.2975908136
 C          4.1993262903       -1.5200132685        1.8976460721
 H          3.5064295732       -1.3963579241        2.7353262294
 H          4.3371024446       -2.5890551081        1.7221134927
 H          6.2188068508       -0.7383284196       -2.0568160515
 H          7.0681918580       -2.0990165149       -1.3125558411
 H          5.0510208263       -2.8783858938       -0.2329426591
 H          4.6621562314       -2.5460152383       -1.9312931692
 O          3.2501496809       -0.5682602547       -1.6241869654
 C          2.2641389371        0.3927245599       -1.4484240441
 O          1.7982129338        0.8501934655       -2.5080456776
 H         -0.3134801500       -0.6018543834        0.3653048853
 C         -0.9086891382        0.0242760966       -0.2879956844
 C         -0.4718262636        1.3137252824       -0.5688693586
 C         -1.2546675285        2.1118762945       -1.3917915357
 C         -2.4210875316        1.6139393396       -1.9479392105
 C         -2.8372751800        0.3217191904       -1.6890209734
 C         -2.0741863658       -0.4773135055       -0.8457819307
 N         -2.4940582813       -1.7860597055       -0.5601019549
 S         -4.1175216135       -2.0616904812       -0.2707678011
 O         -4.1547373031       -3.2284369537        0.5831067304
 O         -4.8223492067       -2.1783488204       -1.5232834172
 C         -4.6958176829       -0.6228357453        0.6122975673
 C         -4.0777070014       -0.2957152747        1.8029920395
 C         -4.4992245071        0.8315268754        2.4890427445
 C         -5.5270488180        1.6081797092        1.9759607795
 C         -6.1413693776        1.2631946149        0.7823707891
 C         -5.7223364045        0.1378244972        0.0907869014
 H         -6.1693102119       -0.1654778261       -0.8419560119
 H         -6.9415464794        1.8675996891        0.3866843195
 H         -5.8502367055        2.4867205508        2.5116308448
 H         -4.0219355223        1.1007211924        3.4176898597
 H         -3.2837136109       -0.9213885004        2.1787390945
 H         -1.9073379191       -2.2770708949        0.0974093509
 H         -3.7292244679       -0.0866577494       -2.1355400150
 H         -3.0118305340        2.2405493066       -2.5982867162
 H         -0.9460466470        3.1205882658       -1.6102475655
 C          0.8189859212        1.7771440910        0.0607132487
 H          0.6676517603        1.8281611465        1.1493739979
 C          1.2861589304        3.1312153056       -0.4295221409
 C          0.7582155738        4.3854373902        0.1983393989
 C          2.1697158678        3.9547719426        0.4574447327
 H          2.9743673204        4.5158872949        0.0063148825
 H          2.4127286300        3.5499850826        1.4292444444
 H          0.0424377482        4.2802465435        0.9992692621
 H          0.5949045371        5.2476270880       -0.4303320666
 H          1.4999582854        3.1377342302       -1.4923876457
 O          2.1207940649        0.3643450457        2.1714974035
