  62
        -98.94319828
 C         -1.5548664469       -1.5115877286        0.1326961589
 C         -2.5572406514       -0.9542299236        0.9659022501
 C         -3.2486971424        0.2287319358        0.4424361536
 C         -2.8938200189        0.7330867952       -0.7533004615
 C         -3.5342800431        1.9074912165       -1.4424218251
 C         -2.9948659091        3.2711338730       -0.9911093612
 C         -3.4234505593        3.7109994232        0.4089976681
 H         -4.5078950491        3.6395480183        0.4982981073
 H         -3.1583973968        4.7652111711        0.5106228453
 C         -2.7582404143        2.9231947165        1.5463413930
 H         -2.4002906505        3.6165780969        2.3108210787
 H         -1.8836215320        2.3942291386        1.1595253945
 C         -3.6784385753        1.9192038437        2.2411818008
 H         -4.4877966211        2.4517998426        2.7457013178
 H         -3.0993930346        1.3905631430        3.0030666059
 C         -4.2936809044        0.8723734419        1.3030193738
 H         -5.0674301506        1.3291344275        0.6860768700
 H         -4.7503887504        0.0905287313        1.9151192451
 H         -3.3498615430        4.0157243015       -1.7071372806
 H         -1.9053221261        3.2447962217       -1.0428369370
 H         -4.6139936521        1.8729793033       -1.2929565670
 H         -3.3282819138        1.7911651760       -2.5084488546
 O         -1.8966610896        0.1975214150       -1.5032303052
 C         -1.1898833029       -0.9222693520       -1.0797685798
 O         -0.2908555453       -1.2733868282       -1.8627626000
 O         -2.8596690512       -1.4247256215        2.0956573199
 C         -0.8119014705       -2.7332434566        0.6439783988
 C          0.6736776687       -2.5232194763        0.4954530635
 C          1.5019101615       -3.3481593521       -0.2524180026
 C          2.8528872424       -3.0668704512       -0.3670186895
 C          3.4066500232       -1.9663449850        0.2600067135
 C          2.5855136921       -1.1326267307        1.0096710858
 C          1.2351574323       -1.4193385325        1.1275138015
 H          0.5960080586       -0.7661984957        1.7100618609
 N          3.1371870452       -0.0046113184        1.6539034093
 S          3.8558721067        1.1719098218        0.7044275986
 O          4.9834924296        0.5950863041        0.0187503947
 O          4.1452344671        2.2619681893        1.6085374420
 C          2.6147182825        1.6789608698       -0.4713005572
 C          2.3652412496        0.8879412144       -1.5748540706
 C          1.3758767470        1.2741302742       -2.4647877221
 C          0.6607281411        2.4397073329       -2.2389959117
 C          0.9259706712        3.2256632673       -1.1274152399
 C          1.9068111997        2.8395277627       -0.2288893652
 H          2.1466271804        3.4212053561        0.6469281265
 H          0.3750630843        4.1377265413       -0.9575333055
 H         -0.1089795890        2.7335291893       -2.9357669208
 H          1.1557652003        0.6520761102       -3.3166371788
 H          2.9377049019       -0.0125922740       -1.7252222785
 H          2.4941859435        0.4395032250        2.2945034794
 H          4.4529278744       -1.7254706878        0.1638440774
 H          3.4841256147       -3.7133477814       -0.9578763398
 H          1.0871932628       -4.1984403180       -0.7679101126
 H         -1.0433943936       -2.7607398935        1.7223957341
 C         -1.2995224109       -4.0538671821        0.0680309836
 C         -2.7130767770       -4.2135081012       -0.4039424557
 C         -1.5866458578       -4.2394733840       -1.3907684208
 H         -1.3289975100       -5.1845641334       -1.8463615036
 H         -1.4482297797       -3.3896727651       -2.0399499330
 H         -3.2271665930       -5.1365894159       -0.1815499004
 H         -3.3510556551       -3.3419223159       -0.3783968644
 H         -0.8717286082       -4.9039274989        0.5910553372
