  62
        -98.94702055
 C         -2.2846875097       -0.5059553609       -0.4722012199
 C         -1.4483401302        0.4150700296       -1.1469120698
 C         -1.7153741010        1.8388535595       -0.8942621697
 C         -2.6886912812        2.1912133989       -0.0369960897
 C         -3.0325625720        3.6006249787        0.3472869704
 C         -2.2546696823        4.0526047790        1.5904502905
 C         -0.7499727722        3.7910419398        1.5146483405
 H         -0.3035682824        4.1992063800        2.4247517606
 H         -0.5628943516        2.7140356699        1.5290268204
 C         -0.0576560024        4.4019990403        0.2884216106
 H          0.8723624473        4.8732335108        0.6136231007
 H         -0.6850300428        5.1825224800       -0.1449431894
 C          0.3131370682        3.3809523306       -0.7884816895
 H          0.8237369786        2.5388994008       -0.3144152995
 H          1.0178526480        3.8510389010       -1.4800927794
 C         -0.8580863715        2.8388991800       -1.6184744696
 H         -1.4642329019        3.6695463497       -1.9867136495
 H         -0.4408212812        2.3100520303       -2.4802730496
 H         -2.4314069929        5.1202732389        1.7365006605
 H         -2.6494759621        3.5207893187        2.4593893304
 H         -2.8149029723        4.2620166288       -0.4892475096
 H         -4.1014293420        3.6443212181        0.5647966203
 O         -3.4632646408        1.2823070384        0.6090372602
 C         -3.2734546600       -0.0741933015        0.4171458001
 O         -4.0507246897       -0.7947282920        1.0774431200
 H          0.4129268606       -1.2105159294       -0.2730044298
 C          0.1416602610       -1.9642804096        0.4453557101
 C         -1.1316994487       -2.5148620103        0.4141371400
 C         -1.4583354182       -3.4991856006        1.3385414799
 C         -0.5346618880       -3.9060587101        2.2851886999
 C          0.7134109416       -3.3142209395        2.3480554700
 C          1.0499970312       -2.3271275392        1.4271313501
 N          2.3002871708       -1.6930888385        1.4795859602
 S          2.4406722899       -0.0226293885        1.3024150904
 O          3.3232864596        0.3895988119        2.3772680504
 O          1.1493230196        0.6158767709        1.2627839204
 C          3.3267512499        0.1506514122       -0.2337574296
 C          2.6590206899        0.3278560619       -1.4279685396
 C          3.3996749799        0.4372891024       -2.5959900495
 C          4.7826352899        0.3643589531       -2.5541322395
 C          5.4387751799        0.1835898334       -1.3456223595
 C          4.7063139899        0.0759031729       -0.1757049395
 H          5.1745930200       -0.0491765069        0.7865979205
 H          6.5148978900        0.1276400440       -1.3123723494
 H          5.3506878799        0.4503316135       -3.4671104394
 H          2.8828681798        0.5768009822       -3.5321468796
 H          1.5811369698        0.3798655513       -1.4503897596
 H          2.8849827909       -2.0072952183        2.2409083102
 H          1.4222163918       -3.6060652492        3.1086669100
 H         -0.7975113776       -4.6737040103        2.9973854498
 H         -2.4488856580       -3.9297684311        1.3265350198
 C         -2.1476569689       -2.0177304108       -0.5875748200
 H         -3.1256781787       -2.4281427913       -0.2996373501
 C         -1.8178346286       -2.5065008205       -1.9837447401
 C         -2.2050476278       -3.8996700907       -2.3752043102
 C         -2.9279117784       -2.7265060010       -2.9648267501
 H         -2.7553861985       -2.4766198808       -4.0006722601
 H         -3.9361188885       -2.5274959916       -2.6307171502
 H         -2.7267399375       -4.4998295210       -1.6451069203
 H         -1.5342383775       -4.4607527203       -3.0072890902
 H         -0.8858329188       -2.1151798900       -2.3680052100
 O         -0.5210261100        0.0929910302       -1.9373686398
