  62
        -98.93375220
 C         -2.4394983258       -0.2988740365        0.3237370489
 C         -3.5849080088       -0.1276412803        1.1336551311
 C         -4.7706659632        0.4510029024        0.4786409478
 C         -4.6945475388        0.7973650973       -0.8183081370
 C         -5.7933269427        1.3517711477       -1.6824587524
 C         -6.5156776905        0.2213069970       -2.4350389087
 C         -7.6709353971       -0.4255656227       -1.6718613043
 H         -8.5047733574        0.2776843539       -1.6200338344
 H         -8.0043814355       -1.2862768500       -2.2561098582
 C         -7.3379529407       -0.8942164536       -0.2529695357
 H         -8.0799693538       -1.6411906156        0.0357672394
 H         -6.3641243477       -1.3871771984       -0.2469186825
 C         -7.3533397302        0.2445862747        0.7775000803
 H         -7.8188172454        1.1229714141        0.3307798366
 H         -7.9815704982       -0.0418114020        1.6235367715
 C         -5.9816413253        0.6247741078        1.3545239929
 H         -5.7748214194        0.0102167401        2.2364387524
 H         -6.0155251109        1.6633664983        1.7008166854
 H         -6.9108820405        0.6206487746       -3.3712816825
 H         -5.7723011500       -0.5377900461       -2.6915908666
 H         -6.4897530944        1.9393285287       -1.0916732081
 H         -5.3132203030        2.0052637186       -2.4138374928
 O         -3.5643378334        0.6291042589       -1.5588267544
 C         -2.4145340177        0.0802020916       -1.0179718414
 O         -1.4640443027       -0.0164083142       -1.8166861933
 O         -3.6180544405       -0.4474273285        2.3534742848
 C         -1.1850537791       -0.8917631600        0.9389819593
 C         -0.0552795081        0.1050176930        0.8528303579
 C         -0.2578376311        1.3857470706        1.3616627717
 C          0.7421099942        2.3364649832        1.3039009006
 C          1.9680167107        2.0336301718        0.7370774803
 C          2.1852060738        0.7578561539        0.2371522932
 C          1.1800312199       -0.2009206386        0.3061910071
 H          1.3648130161       -1.1879401379       -0.0880712564
 N          3.4216823196        0.4441785550       -0.3531489543
 S          4.8197927626        1.0162316657        0.4010688276
 O          4.7461172589        0.7806398396        1.8258727278
 O          5.0320325563        2.3848315455        0.0010978066
 C          6.0569548652       -0.0295627489       -0.3410954387
 C          6.4570798947       -1.1762565366        0.3185823871
 C          7.4025875062       -1.9962962484       -0.2769000717
 C          7.9261312477       -1.6593538158       -1.5161081697
 C          7.5140991238       -0.5052921522       -2.1659817110
 C          6.5700587756        0.3198481425       -1.5758157518
 H          6.2262097203        1.2300642225       -2.0387408994
 H          7.9252773778       -0.2458713570       -3.1281971811
 H          8.6623649914       -2.2988139135       -1.9769630479
 H          7.7270815247       -2.8926316989        0.2267127217
 H          6.0306532802       -1.3938923407        1.2847378444
 H          3.5002832685       -0.5371813174       -0.5819267301
 H          2.7573266587        2.7661134027        0.6832476092
 H          0.5679992415        3.3254390828        1.7014707271
 H         -1.2161193633        1.6261427355        1.8024001382
 H         -1.4243410322       -1.0411234385        2.0023354285
 C         -0.8732343093       -2.2360592292        0.3165957049
 C         -0.0998122548       -3.2622742094        1.0882838624
 C         -1.5656800965       -3.4552969737        0.8445694606
 H         -1.8777135970       -4.2150733064        0.1438033404
 H         -2.2463444156       -3.3193060111        1.6722291907
 H          0.5933869084       -3.8955067306        0.5551746839
 H          0.2183670288       -3.0007374065        2.0862445911
 H         -0.7195336507       -2.1734517413       -0.7549360399
