  62
        -98.93382299
 C          2.3310785724        0.7382101916       -0.1359167077
 C          3.5566890444        1.0162314191        0.5129748114
 C          4.7686659314        0.4604746763       -0.1109505565
 C          4.6557334080       -0.2623302757       -1.2386358457
 C          5.7513290926       -0.8870861194       -2.0661566095
 C          6.8859751359       -1.6009272312       -1.3185444013
 C          6.4701500629       -2.2867601124       -0.0090353609
 H          5.3818784917       -2.3206872324        0.0665576348
 H          6.8280282683       -3.3179633611       -0.0194780911
 C          7.0474298628       -1.6021515934        1.2322657342
 H          7.0360468687       -2.3124053319        2.0625229056
 H          8.0906702404       -1.3447854562        1.0368321844
 C          6.3032627276       -0.3510982202        1.6974905368
 H          5.3310492484       -0.6307689528        2.1123234220
 H          6.8785988332        0.1005679994        2.5092025848
 C          6.0579848954        0.7142783163        0.6164198829
 H          6.8997328720        0.7824940368       -0.0682257004
 H          5.9362091485        1.6785570516        1.1171719525
 H          7.2956913659       -2.3442172395       -2.0045155612
 H          7.6865255753       -0.8928831906       -1.1092009446
 H          5.2404652344       -1.5971620988       -2.7208255252
 H          6.1781262124       -0.1093415052       -2.7061081173
 O          3.4514160662       -0.5066595795       -1.8300339507
 C          2.2649906848       -0.0261937824       -1.2993133024
 O          1.2487531616       -0.3434048239       -1.9461865962
 O          3.6370585646        1.7034952837        1.5664399095
 C          1.0446398873        1.2815142912        0.4582621917
 C          0.1130669694        0.1449463790        0.7990053332
 C          0.5800961479       -0.8774374848        1.6225461268
 C         -0.2335128153       -1.9404759354        1.9605749243
 C         -1.5352754604       -2.0026331852        1.4943928916
 C         -2.0105693083       -0.9899400909        0.6705697489
 C         -1.1888221947        0.0770078820        0.3314521035
 H         -1.5858215899        0.8475082762       -0.3075165249
 N         -3.3160294403       -1.0425900619        0.1573540846
 S         -4.1665617238        0.3968998959       -0.0655040353
 O         -3.7803000249        0.9880943574       -1.3216545967
 O         -4.0344137337        1.2367205336        1.1040410317
 C         -5.8290135907       -0.2375062583       -0.1866293058
 C         -6.6533344337       -0.2052669414        0.9222403252
 C         -7.9322951167       -0.7302869434        0.8221955623
 C         -8.3616429504       -1.2782161875       -0.3771565237
 C         -7.5229852770       -1.3029182424       -1.4818339201
 C         -6.2435307617       -0.7788136225       -1.3890570391
 H         -5.5594726939       -0.7681206233       -2.2217846640
 H         -7.8611673403       -1.7271445477       -2.4134366095
 H         -9.3572296146       -1.6860877113       -0.4527501689
 H         -8.5877024338       -0.7099108999        1.6779526318
 H         -6.2789196504        0.2377880554        1.8310127013
 H         -3.8860099857       -1.7497215462        0.6008523091
 H         -2.1731055586       -2.8325908928        1.7580737446
 H          0.1444840377       -2.7254457223        2.5984116516
 H          1.5957464260       -0.8247337415        1.9914150220
 H          1.3401475329        1.7733884136        1.3974786769
 C          0.4295063989        2.3173496393       -0.4578134724
 C         -0.4836989051        3.3659531431        0.1008143666
 C          0.8887742016        3.7405418000       -0.3698488840
 H          0.9846429019        4.3084725157       -1.2830063646
 H          1.6373824995        3.9749446383        0.3727936041
 H         -1.3376090407        3.6692556647       -0.4868797366
 H         -0.6730933929        3.3478242207        1.1637230352
 H          0.2069857964        1.9241394227       -1.4442133202
