  62
        -98.94107885
 C          2.0655837905        1.4070378393        0.2874968001
 C          1.7420440605        0.4167846296       -0.6753493902
 C          2.7690467302       -0.6149480508       -0.9061607200
 C          3.8770417298       -0.6350897914       -0.1448786295
 C          4.9542541994       -1.6766874418       -0.2187339292
 C          4.6472064385       -2.8577815419        0.7132736404
 C          3.2338288183       -3.4181735413        0.5545457497
 H          3.1392195377       -4.2623939714        1.2406083895
 H          2.5140114185       -2.6610753810        0.8739159695
 C          2.8933144088       -3.8749059109       -0.8709698405
 H          3.8105869489       -4.0058231911       -1.4463470402
 H          2.4010520883       -4.8484406007       -0.8217117709
 C          1.9507542695       -2.9385736403       -1.6281731207
 H          1.0538388293       -2.7579860000       -1.0328416411
 H          1.6334779796       -3.4433656200       -2.5447548710
 C          2.5357765402       -1.5814458305       -2.0352708602
 H          3.4610187604       -1.7350639808       -2.5954418799
 H          1.8107736307       -1.1005622901       -2.6991351105
 H          5.3769007883       -3.6464576622        0.5211878906
 H          4.7713034882       -2.5247285421        1.7463102805
 H          5.0470316097       -2.0257226417       -1.2455796493
 H          5.8969838195       -1.2194693323        0.0863652612
 O          4.1113333798        0.2758316983        0.8325540108
 C          3.2375170201        1.3258011586        1.0507659206
 O          3.6045302401        2.1095791483        1.9482080109
 H         -0.8722663985        2.2998632408       -1.1571120910
 C         -1.1610280890        2.0695244107       -0.1439959311
 C         -0.2335030094        2.1904876901        0.8776497093
 C         -0.6203954401        1.8682745601        2.1742351791
 C         -1.9127671704        1.4525354306        2.4419449284
 C         -2.8290509000        1.3035828811        1.4155807280
 C         -2.4355628393        1.5837684412        0.1130361282
 N         -3.3178337490        1.3403441918       -0.9518383322
 S         -4.2548867796       -0.0435773078       -0.8910342128
 O         -4.3950248992       -0.4744614575       -2.2655983230
 O         -5.4940588698        0.2611847026       -0.2144820033
 C         -3.3776596905       -1.2772009184        0.0652778973
 C         -2.0148918306       -1.4556960289       -0.0721842321
 C         -1.3941772113       -2.4196957193        0.7075235979
 C         -2.1317199320       -3.1988830092        1.5841619475
 C         -3.5010098720       -3.0181530286        1.6959166869
 C         -4.1277335112       -2.0449658782        0.9354004269
 H         -5.1863089612       -1.8537112478        1.0066871664
 H         -4.0783194825       -3.6234029985        2.3760684066
 H         -1.6340533926       -3.9451786495        2.1830863376
 H         -0.3257515513       -2.5495195398        0.6317109684
 H         -1.4357777500       -0.8458304190       -0.7492914918
 H         -2.8820003986        1.4374573418       -1.8578088420
 H         -3.8361603502        0.9656131915        1.6024151075
 H         -2.2065454009        1.2277092505        3.4557130983
 H          0.1042746696        1.9476693696        2.9724164294
 C          1.1844304609        2.6110473196        0.5889700900
 H          1.6042137407        3.0394538392        1.5119966302
 C          1.2464865318        3.7093638198       -0.4657595398
 C          2.5671302122        4.1466533393       -1.0241157892
 C          1.5699392923        3.4611350299       -1.9068359797
 H          1.0545244229        4.0508822103       -2.6511617298
 H          1.7729961120        2.4493327499       -2.2198823898
 H          3.4413822119        3.5912435089       -0.7157853589
 H          2.7466729327        5.2015752793       -1.1657496789
 H          0.5247670120        4.4951701800       -0.2633476300
 O          0.6707069507        0.3734446702       -1.3342804807
