  62
        -98.93915008
 C         -1.9968728717       -1.7305171704       -0.0975296009
 C         -2.6356029303       -1.0761167101        0.9906526902
 C         -3.7350193780       -0.1670125990        0.6596346482
 C         -4.1238570937       -0.0402309292       -0.6213432402
 C         -5.2221202461        0.8536042587       -1.1300791323
 C         -4.7742782301        2.3007118762       -1.3781022771
 C         -4.5195783954        3.1282294870       -0.1173075741
 H         -4.4280592530        4.1698077347       -0.4316997288
 H         -5.3861785260        3.0608692443        0.5411840105
 C         -3.2520814507        2.7344621414        0.6550015513
 H         -2.6007495279        2.1387932531        0.0100269755
 H         -2.6920170867        3.6341391546        0.9207710435
 C         -3.5116034745        1.9618605206        1.9489024950
 H         -2.5454458543        1.6984480046        2.3874861769
 H         -4.0420411768        2.6023752093        2.6570448836
 C         -4.3142909458        0.6676783816        1.7609143078
 H         -5.3598139845        0.8974517665        1.5572586616
 H         -4.2534834631        0.0883843997        2.6853026424
 H         -3.8701189327        2.2865006334       -1.9920474495
 H         -5.5605222105        2.7914330519       -1.9566324098
 H         -5.5564889416        0.4287529950       -2.0789587541
 H         -6.0577557795        0.8442909594       -0.4298230657
 O         -3.5528482334       -0.7533094622       -1.6244166738
 C         -2.4606210224       -1.5947688593       -1.4055934943
 O         -2.0608103252       -2.1457673661       -2.4470441746
 O         -2.2892958474       -1.2490407631        2.1895276257
 C         -0.7796533151       -2.5577779565        0.2896914105
 C          0.2050469578       -1.6754482878        1.0199537339
 C          0.8974196484       -2.1470055590        2.1302046088
 C          1.8040039920       -1.3406882247        2.7932876904
 C          2.0529524674       -0.0543346731        2.3487586601
 C          1.3684341308        0.4261409868        1.2394210892
 C          0.4484025165       -0.3805444632        0.5858131777
 H         -0.0868725882        0.0171255904       -0.2647891969
 N          1.5984673257        1.7303704537        0.7491341430
 S          2.3232632002        1.8444811031       -0.7561906956
 O          2.5097088478        3.2586991110       -0.9901564144
 O          1.5420949822        1.1220570114       -1.7259589729
 C          3.9101016257        1.0612472004       -0.5243763713
 C          3.9861082346       -0.3172206547       -0.5516403786
 C          5.2037493407       -0.9253649615       -0.2894395436
 C          6.3169715545       -0.1498020319       -0.0036067195
 C          6.2244573612        1.2336972780        0.0194550065
 C          5.0090608723        1.8475431502       -0.2374520770
 H          4.8898827091        2.9190191591       -0.2335036555
 H          7.0921738493        1.8346386859        0.2389383785
 H          7.2621075859       -0.6275019221        0.2006379987
 H          5.2744674915       -2.0009036115       -0.3091715752
 H          3.1027858243       -0.8894924552       -0.7839918655
 H          2.0933838508        2.3243129524        1.4006607683
 H          2.7596682395        0.5801153415        2.8624833541
 H          2.3237188076       -1.7164033943        3.6611396797
 H          0.7019064552       -3.1482506576        2.4847687955
 H         -1.1293716988       -3.3142757606        1.0132940040
 C         -0.1159129116       -3.3043592463       -0.8558842737
 C          0.8714500525       -2.6531308410       -1.7724421208
 C          1.3325176651       -3.6926620522       -0.7973462755
 H          1.6141408971       -4.6613833218       -1.1811773519
 H          1.9113026808       -3.3661316660        0.0536012515
 H          0.8165912081       -2.9029813257       -2.8211485823
 H          1.1175046312       -1.6152920713       -1.6012250270
 H         -0.7921070515       -4.0136095193       -1.3191088833
