  62
        -98.94476897
 C          1.8359609454       -0.4524050862        0.5887400739
 C          2.8615536832       -1.2865320395        0.0827346981
 C          4.2312405897       -0.7900277522        0.2534629845
 C          4.4427978619        0.3807615460        0.8820304516
 C          5.7832293735        1.0070327544        1.1567539100
 C          6.3447318766        1.8205556952       -0.0174602119
 C          6.8480784765        0.9925470413       -1.2005080228
 H          7.4077305338        1.6689462795       -1.8496404565
 H          7.5455385731        0.2351292494       -0.8414539409
 C          5.7376129396        0.3245981938       -2.0233898746
 H          4.7808846161        0.8009153950       -1.7965956756
 H          5.9285767594        0.4812348999       -3.0874493551
 C          5.6053065936       -1.1825059312       -1.8037687417
 H          4.7684586786       -1.5447146515       -2.4062818890
 H          6.5114088428       -1.6841630729       -2.1504998792
 C          5.3497066809       -1.5879829619       -0.3461407939
 H          6.2595011799       -1.4710653060        0.2421048486
 H          5.0537440190       -2.6397016564       -0.3293761004
 H          5.5746798492        2.5158364901       -0.3598200263
 H          7.1793694263        2.4121342222        0.3658392989
 H          6.4980586732        0.2340943220        1.4405118056
 H          5.6430007459        1.6797178401        2.0056491805
 O          3.4297299092        1.1439737459        1.3725061982
 C          2.1039903696        0.7611441609        1.2218399184
 O          1.2811540590        1.5701426040        1.6912486827
 O          2.6418570540       -2.3896019256       -0.4852497333
 C          0.3910170417       -0.8951032490        0.4405717809
 C         -0.3870003845        0.1367659672       -0.3361835265
 C          0.1227397243        0.5727373401       -1.5579302615
 C         -0.5319688081        1.5389513289       -2.2945235683
 C         -1.7194430505        2.0832412558       -1.8362276928
 C         -2.2436151781        1.6473627933       -0.6263847268
 C         -1.5839621378        0.6718362410        0.1117891442
 H         -2.0070087273        0.3662256383        1.0537502930
 N         -3.4427911320        2.1847170004       -0.1376820829
 S         -4.5478497508        1.2078167568        0.6398468236
 O         -5.8084709953        1.9043566909        0.4932228773
 O         -4.1332009485        0.9419866225        1.9938551922
 C         -4.5788962799       -0.3083768984       -0.3013507281
 C         -4.7987301172       -0.2358202132       -1.6630875148
 C         -4.8176124724       -1.4069868310       -2.4023147634
 C         -4.6214006641       -2.6260884950       -1.7712258281
 C         -4.4109805180       -2.6830397056       -0.4026476451
 C         -4.3878374679       -1.5136228870        0.3409113694
 H         -4.2217361892       -1.5121538186        1.4056894116
 H         -4.2626887219       -3.6314968789        0.0887452803
 H         -4.6341580627       -3.5369189120       -2.3488372428
 H         -4.9839159655       -1.3663362202       -3.4667048842
 H         -4.9580488258        0.7246067772       -2.1252257732
 H         -3.8905222971        2.8555576895       -0.7439023620
 H         -2.2284763314        2.8474917836       -2.4034625402
 H         -0.1178351789        1.8725141234       -3.2340372411
 H          1.0517035855        0.1489527256       -1.9144081045
 H          0.4297219319       -1.8189113810       -0.1558721223
 C         -0.1963992344       -1.2174486275        1.7976074386
 C         -1.2775365478       -2.2458998015        1.9300929881
 C          0.1071480724       -2.5481059825        2.4164214799
 H          0.2847596350       -2.5938345762        3.4804750028
 H          0.7141732434       -3.2329028224        1.8424387901
 H         -2.0517949146       -2.0801608444        2.6642435689
 H         -1.6159435119       -2.7318777645        1.0277450830
 H         -0.2261391167       -0.3560893291        2.4562860931
