  62
        -98.94946484
 C         -1.0053738987       -1.6985291799       -0.2640082464
 C         -2.2752842780       -1.5394460884        0.3360867992
 C         -3.0770434308       -0.4123137499       -0.1521538107
 C         -2.5822865910        0.3918594842       -1.1103982875
 C         -3.2770316337        1.5849141845       -1.7097117896
 C         -3.1471409092        2.8660859369       -0.8739819264
 C         -3.9966757753        2.9044874625        0.3966255330
 H         -3.9994730844        3.9384681996        0.7477279520
 H         -5.0268261048        2.6376907095        0.1567842195
 C         -3.4769829440        2.0065747964        1.5281002165
 H         -2.4282771023        1.7561312364        1.3466116938
 H         -3.5030891618        2.5598307952        2.4704084622
 C         -4.2784216667        0.7215061741        1.7388789224
 H         -5.2827762006        0.9718049761        2.0896886748
 H         -3.7848096468        0.1373590906        2.5199643719
 C         -4.4068098562       -0.1637183837        0.4930872485
 H         -4.8091715267       -1.1314681722        0.8040583664
 H         -5.0964424111        0.2890246925       -0.2193527975
 H         -3.4420629431        3.7038547308       -1.5106204927
 H         -2.0987082073        3.0081353871       -0.5986623384
 H         -4.3325673952        1.3575510617       -1.8633135861
 H         -2.8140087681        1.7582251505       -2.6835842483
 O         -1.3646479949        0.1914988218       -1.6800007404
 C         -0.5368108127       -0.8383747572       -1.2573694052
 O          0.5637032759       -0.8861105798       -1.8380101277
 O         -2.7175937004       -2.3031502785        1.2381295476
 C         -0.0846838785       -2.7962041102        0.2302158990
 C          1.2310719656       -2.2224257599        0.6990002059
 C          2.4247259789       -2.9320914211        0.6304693270
 C          3.6056391175       -2.3658400819        1.0775950184
 C          3.6299664275       -1.0762683752        1.5771637369
 C          2.4418881401       -0.3592365591        1.6501851906
 C          1.2561551092       -0.9443573801        1.2394392212
 H          0.3428106869       -0.3745647559        1.3212343986
 N          2.4091757881        0.9620773572        2.1337088288
 S          1.5707403537        2.1153999218        1.2623983003
 O          2.0639364613        3.3761514462        1.7819352148
 O          0.1490434568        1.9110959359        1.3839775301
 C          2.0753183990        1.9623472441       -0.4417181500
 C          1.1351796074        2.1750805300       -1.4265429436
 C          1.5206543118        2.1083984052       -2.7548131440
 C          2.8388866339        1.8305155869       -3.0748359125
 C          3.7762777732        1.6266955673       -2.0745944980
 C          3.3957856348        1.6972077768       -0.7449238013
 H          4.1111585440        1.5465415689        0.0467832984
 H          4.8017928755        1.4088499335       -2.3264695718
 H          3.1359297375        1.7693137721       -4.1099900523
 H          0.7868275292        2.2601811645       -3.5300269975
 H          0.1147510978        2.3699234824       -1.1381396916
 H          3.3022407484        1.3242238904        2.4360471560
 H          4.5546955441       -0.6295886546        1.9098609216
 H          4.5232286395       -2.9312003941        1.0218145817
 H          2.4290313842       -3.9302347234        0.2237178960
 H         -0.5963888573       -3.2427326073        1.0969464827
 C          0.0881223210       -3.8635637911       -0.8332196603
 C          0.2266476808       -5.3068678897       -0.4526852257
 C         -1.0393579924       -4.8175545710       -1.0868694754
 H         -1.2547661885       -5.1037403021       -2.1053176387
 H         -1.9182893249       -4.7172380953       -0.4666749253
 H          0.8811268109       -5.9341097898       -1.0391143023
 H          0.1997214129       -5.5538911477        0.5980180087
 H          0.6423245142       -3.5028729472       -1.6925578575
