  62
        -98.94440915
 C         -1.8386084227       -0.0223687050       -0.4116747453
 C         -2.9729399284        0.3961555045       -1.1475622715
 C         -4.2692228573       -0.1004359056       -0.6682056394
 C         -4.3048585034       -0.9210807149        0.3976900049
 C         -5.5594413107       -1.4570375555        1.0232612001
 C         -6.0612798341       -0.5314342327        2.1404240729
 C         -6.1391023835        0.9404511057        1.7347490179
 H         -5.1287940367        1.3126075993        1.5498170130
 H         -6.5328677635        1.4927910016        2.5907334330
 C         -7.0136136279        1.2144215242        0.5031896265
 H         -7.6449495225        2.0814995422        0.7085140841
 H         -7.6760547170        0.3669071449        0.3235725786
 C         -6.2312096290        1.5258081625       -0.7739806408
 H         -5.5001304864        2.3127805655       -0.5725745199
 H         -6.9334775263        1.9136135021       -1.5166282056
 C         -5.4981164494        0.3397049655       -1.4131790331
 H         -5.1515790367        0.6566840719       -2.4011753888
 H         -6.1905393691       -0.4943707626       -1.5432728559
 H         -5.3813209496       -0.6166036715        2.9913595032
 H         -7.0471122688       -0.8763152524        2.4576934718
 H         -6.3241187008       -1.5661252941        0.2566515604
 H         -5.3399924651       -2.4382645476        1.4475438346
 O         -3.1915296768       -1.3223898831        1.0636980621
 C         -1.9320461895       -0.8773629601        0.6862287845
 O         -1.0016088205       -1.3113734484        1.3917762757
 H          2.1200965143        0.0480221799        0.0249891706
 C          1.7458789722       -0.7423641853       -0.6032679145
 C          0.4557775996       -0.6848783962       -1.1073536193
 C          0.0077903944       -1.7275230920       -1.9149087362
 C          0.8191997354       -2.8121315782       -2.1822927524
 C          2.0967987878       -2.8790166545       -1.6548745097
 C          2.5614403306       -1.8361511468       -0.8627691360
 N          3.8706367358       -1.8574819764       -0.3696141442
 S          4.3532992811       -1.0201421960        0.9886287980
 O          5.6542744888       -1.5782051576        1.2957072507
 O          3.3812004788       -1.0712008676        2.0547550119
 C          4.5700918859        0.6568033159        0.4280430895
 C          4.3185732404        1.6875337829        1.3117355175
 C          4.5335258628        2.9939149113        0.9004211901
 C          4.9928356726        3.2460378221       -0.3829762766
 C          5.2410898008        2.1998436235       -1.2581668620
 C          5.0338801595        0.8914583702       -0.8512219855
 H          5.2171770966        0.0569110574       -1.5068577581
 H          5.5964555677        2.3994075064       -2.2562254466
 H          5.1557939560        4.2633834367       -0.7017473635
 H          4.3409722725        3.8079814381        1.5813120973
 H          3.9488179633        1.4466961467        2.2961780022
 H          4.3738021366       -2.7227774043       -0.4934563659
 H          2.7285709473       -3.7311207456       -1.8536993844
 H          0.4537404890       -3.6172650138       -2.8019600141
 H         -0.9936785453       -1.6800583302       -2.3206974639
 C         -0.4686158551        0.4747777966       -0.8348787641
 H         -0.6350627067        1.0107615884       -1.7816684998
 C          0.0733059298        1.4536113057        0.1857555052
 C          0.9857935666        2.5620578049       -0.2445730990
 C         -0.4228325103        2.8673595385        0.1650276554
 H         -0.5920176740        3.3678331685        1.1066736963
 H         -1.1359499419        3.1288150926       -0.6031145459
 H          1.2335067749        2.6243835798       -1.2932246507
 H          1.7888414405        2.8537115353        0.4151102801
 H          0.2421422904        0.9945199708        1.1546045378
 O         -2.9029532113        1.1446340543       -2.1592776371
