  62
        -98.94479530
 C          0.9189691687        1.1470592046        0.6893647692
 C          1.1738606708        0.4486139257       -0.5169084915
 C          2.1149742878       -0.6783188932       -0.4085082976
 C          2.5270069186       -1.0816546614        0.8054335837
 C          3.5313641166       -2.1688239388        1.0544085171
 C          4.9527155446       -1.5931902809        1.1382524773
 C          5.3046924507       -0.6410018778       -0.0053364173
 H          6.3373123413       -0.3196862795        0.1478085875
 H          4.6787123979        0.2515479048        0.0674234169
 C          5.1612054933       -1.2481154262       -1.4081266503
 H          5.1451901836       -2.3363614725       -1.3397426547
 H          6.0382283588       -0.9733293343       -1.9978278756
 C          3.9331480080       -0.7704388961       -2.1859753371
 H          4.0476036246       -1.0845303457       -3.2266037847
 H          3.8975335875        0.3219599400       -2.1768523544
 C          2.5843716854       -1.3073064800       -1.6890975933
 H          2.6407968596       -2.3920416649       -1.5916609509
 H          1.8254574128       -1.0623822573       -2.4372817908
 H          5.6615715737       -2.4230689820        1.1544018881
 H          5.0497323988       -1.0464164376        2.0793343378
 H          3.2902441638       -2.6540071804        2.0020061075
 H          3.4748516126       -2.9034516731        0.2534721594
 O          2.1012059526       -0.5025571976        1.9588078610
 C          1.3348239284        0.6515070198        1.9271947040
 O          1.0808134050        1.1263871376        3.0532322440
 H         -1.8891272238        0.7874493613        1.1559859147
 C         -2.0673772610        1.3773316004        0.2679639089
 C         -1.1185950643        2.3097478562       -0.1334994184
 C         -1.3692895111        3.0710782411       -1.2674241885
 C         -2.5407772547        2.8932343601       -1.9815044158
 C         -3.4810328832        1.9611553612       -1.5830598311
 C         -3.2406148435        1.1976555110       -0.4459700052
 N         -4.1867048567        0.2629017164       -0.0012994707
 S         -3.7268741027       -1.1058187077        0.8232392067
 O         -4.8706110921       -1.9866200571        0.7061010315
 O         -3.3311097807       -0.7766560957        2.1702273399
 C         -2.3598348746       -1.8209199414       -0.0713031440
 C         -2.4913491231       -2.0200110118       -1.4311217639
 C         -1.4726067601       -2.6597629452       -2.1165551847
 C         -0.3524628914       -3.1029434161       -1.4318664440
 C         -0.2318942561       -2.8912889990       -0.0679484236
 C         -1.2417419672       -2.2379869151        0.6197879517
 H         -1.1802358797       -2.0446236471        1.6801045497
 H          0.6412081720       -3.2308577739        0.4661483619
 H          0.4308127130       -3.6176538830       -1.9647753330
 H         -1.5566700742       -2.8165044490       -3.1797739034
 H         -3.3830196973       -1.6839084339       -1.9345139001
 H         -4.9649471407        0.1000762255       -0.6221512537
 H         -4.3942915263        1.8238740667       -2.1413880232
 H         -2.7217301898        3.4851764063       -2.8657645913
 H         -0.6374837200        3.7858624249       -1.6054583226
 C          0.1245916643        2.4406249421        0.7093955012
 H         -0.1982787462        2.5614038618        1.7571257192
 C          0.9572767712        3.6683121106        0.3659086895
 C          2.4148088567        3.7285004411        0.7111787046
 C          1.9866339829        3.6640309630       -0.7224842752
 H          2.0952014085        4.5518910229       -1.3280316978
 H          2.1371701133        2.7444966772       -1.2653273268
 H          2.8589786683        2.8494726218        1.1563037346
 H          2.8145801114        4.6566676678        1.0911162599
 H          0.3952295434        4.5870638235        0.5027891006
 O          0.6715924730        0.7484020961       -1.6287247763
