  62
        -98.92594282
 C          2.2418040308        0.5686478862       -0.2033163377
 C          3.5408646132        1.1311236284       -0.1715315110
 C          4.6343911849        0.2902709040        0.3497772238
 C          4.3403346254       -0.9497819953        0.7821998172
 C          5.2788429420       -1.9993290871        1.3159182208
 C          6.0967983092       -2.6803699418        0.2069888273
 C          6.6820335811       -1.7306510312       -0.8348618331
 H          5.8713358021       -1.1683121947       -1.3018264400
 H          7.1451068174       -2.3397058661       -1.6158099059
 C          7.7384147205       -0.7605171969       -0.3111742127
 H          8.1333501062       -0.2162872714       -1.1728747536
 H          8.5611992829       -1.3296408307        0.1271722596
 C          7.2550636208        0.2656413115        0.7160546374
 H          8.0327161017        1.0301392946        0.8022271028
 H          7.1523987206       -0.1820362802        1.7008263858
 C          5.9704163845        0.9937205976        0.3332131974
 H          6.0801745980        1.4104239823       -0.6744713959
 H          5.8523319245        1.8630577704        0.9912365863
 H          5.4400995523       -3.3814406398       -0.3139959356
 H          6.9000447733       -3.2532351078        0.6734088456
 H          4.6582223549       -2.7541439302        1.8037201228
 H          5.9312477345       -1.5687999565        2.0696601433
 O          3.0720751946       -1.4468954629        0.7469567204
 C          1.9957652722       -0.7255699672        0.2545222419
 O          0.9183321209       -1.3459010642        0.2941923620
 O          3.7880013722        2.3022797103       -0.5707105014
 C          1.1236403452        1.4394500327       -0.7630126090
 C         -0.0200393372        1.5260889393        0.2133403843
 C          0.0855544275        2.4825957030        1.2246518672
 C         -0.8957496730        2.6243011278        2.1856129548
 C         -2.0288068094        1.8307767740        2.1495305032
 C         -2.1422578835        0.8678562446        1.1560978537
 C         -1.1393006966        0.7096071690        0.2079554162
 H         -1.2576623822       -0.0813600381       -0.5096520694
 N         -3.2679465382        0.0312526040        1.0869196464
 S         -3.8672232756       -0.3308260711       -0.4499027923
 O         -3.2551346997       -1.5435099248       -0.9297069348
 O         -3.7486096499        0.8305630722       -1.3025063815
 C         -5.5831252695       -0.6393516173       -0.0707840974
 C         -6.5050865633        0.3778405288       -0.2309314279
 C         -7.8314768278        0.1376162755        0.0919116436
 C         -8.2109118492       -1.1076953673        0.5697560145
 C         -7.2742453639       -2.1188879549        0.7253727955
 C         -5.9466314623       -1.8857990419        0.4033005385
 H         -5.1850662901       -2.6425341024        0.4978741943
 H         -7.5731852943       -3.0867486828        1.0943301415
 H         -9.2436037896       -1.2926730744        0.8198190665
 H         -8.5622924253        0.9205757183       -0.0310612116
 H         -6.1651288286        1.3264189145       -0.6143750945
 H         -4.0025075713        0.2992578719        1.7272106083
 H         -2.8082452074        1.9469306415        2.8873588883
 H         -0.7864117429        3.3687608591        2.9597916496
 H          0.9623753467        3.1153152526        1.2509238804
 H          1.5730726469        2.4453725016       -0.7981061121
 C          0.8531554673        1.0848035052       -2.2204095464
 C          0.2215272290       -0.1795008853       -2.7179415424
 C         -0.4845168020        1.1322861581       -2.8943990149
 H         -0.5325426392        1.5499427353       -3.8897386832
 H         -1.3667034570        1.3223512420       -2.3023157160
 H          0.6584442293       -0.6472257250       -3.5897560513
 H         -0.1540928243       -0.8930885041       -2.0016853360
 H          1.6877043968        1.4324797739       -2.8264081918
