  62
        -98.94445419
 C         -2.7101604885       -1.0044314413        0.1587362162
 C         -2.4747233727       -0.1228483679       -0.9249194700
 C         -2.9836980335        1.2469260820       -0.7607691472
 C         -3.6806036601        1.5701560100        0.3427615827
 C         -4.2007362569        2.9405660210        0.6626946731
 C         -3.1841217809        3.7371807848        1.4924410959
 C         -1.7642230047        3.7150863939        0.9248177933
 H         -1.1453497125        4.3393886734        1.5730976285
 H         -1.3623438621        2.7003707087        0.9849665181
 C         -1.6477191436        4.2138124380       -0.5221383242
 H         -0.7837980011        4.8779197447       -0.5933888951
 H         -2.5309376156        4.7970479315       -0.7869451365
 C         -1.4395996705        3.1080864947       -1.5592932415
 H         -0.6116237846        2.4642926250       -1.2455486372
 H         -1.1430932475        3.5779540965       -2.5016191129
 C         -2.6659139839        2.2319844426       -1.8496157675
 H         -3.5282774275        2.8666689440       -2.0639787624
 H         -2.4464094696        1.6371395460       -2.7411171168
 H         -3.5309872970        4.7695806581        1.5642340809
 H         -3.1542302291        3.3166112652        2.5001089942
 H         -4.4212001268        3.4660775758       -0.2641887556
 H         -5.1215348788        2.8333467347        1.2384572043
 O         -3.9514095500        0.6778858366        1.3286547210
 C         -3.4384368549       -0.6059979422        1.2843374037
 O         -3.7075214421       -1.2977095097        2.2862727254
 H         -0.1003164670       -1.7963209619       -1.5063480778
 C          0.2464415167       -1.8827145115       -0.4882762137
 C         -0.6462928711       -2.2343125525        0.5139163254
 C         -0.1809793222       -2.3023034239        1.8232873163
 C          1.1392404014       -2.0139279108        2.1192679982
 C          2.0162154669       -1.6267954441        1.1206464389
 C          1.5575513087       -1.5496898080       -0.1869131538
 N          2.4274896212       -1.0835479703       -1.1997788561
 S          2.8415924131        0.5429451901       -1.0241743684
 O          1.8190550744        1.2787602456       -0.3161040924
 O          3.1712414332        1.0094281716       -2.3537609839
 C          4.3313729776        0.4742648002       -0.0508152424
 C          4.3917273814        1.1187874142        1.1687409551
 C          5.5635639663        1.0478361460        1.9064305800
 C          6.6472995365        0.3370036921        1.4140060827
 C          6.5707629947       -0.3039520988        0.1861394209
 C          5.4030839554       -0.2356434282       -0.5566107267
 H          5.3006024554       -0.7152334592       -1.5156371715
 H          7.4155383315       -0.8560453895       -0.1930151958
 H          7.5569349963        0.2822631624        1.9909361457
 H          5.6246338059        1.5454253692        2.8610083307
 H          3.5207604507        1.6530471877        1.5136252064
 H          2.0389769773       -1.2160654497       -2.1244925601
 H          3.0393654416       -1.3730106754        1.3465454250
 H          1.4850357380       -2.0741550609        3.1400117686
 H         -0.8750365903       -2.5565324592        2.6120179491
 C         -2.1165411503       -2.4064187108        0.2177713539
 H         -2.5852448682       -2.8957020618        1.0812942255
 C         -2.3954201462       -3.2350571605       -1.0181760079
 C         -2.1739827979       -4.7159574347       -0.9599190082
 C         -3.5672782748       -4.1681680549       -1.0218804694
 H         -4.1287400647       -4.2843223140       -1.9367406383
 H         -4.1742623196       -4.2117330730       -0.1292918763
 H         -1.8344680453       -5.1317985363       -0.0233383781
 H         -1.7771042901       -5.2123771438       -1.8321002431
 H         -2.1701114876       -2.7254299090       -1.9454850326
 O         -1.8748770244       -0.4408347080       -1.9870292117
