  62
        -98.94113792
 C         -2.1076072095       -0.8016437896       -0.3712269991
 C         -3.0517257594       -0.6124588489        0.6730843809
 C         -3.5779169894        0.7463481412        0.8461029899
 C         -3.1257305995        1.7292759006        0.0468389991
 C         -3.6014807196        3.1520943407        0.0794053981
 C         -4.7787156997        3.3682989999       -0.8820186319
 C         -5.8905830496        2.3290604000       -0.7390426310
 H         -6.6796161497        2.5979764294       -1.4445137912
 H         -5.5062840296        1.3527049198       -1.0427608904
 C         -6.4815628595        2.2227470510        0.6736935891
 H         -6.2284401694        3.1137869215        1.2492506084
 H         -7.5700977495        2.1849177109        0.5962620692
 C         -6.0471322193        0.9786713516        1.4508290800
 H         -6.6833578493        0.8907731922        2.3354424301
 H         -6.2120413494        0.0881337811        0.8392418307
 C         -4.5911121293        0.9680720120        1.9337351798
 H         -4.4753235392        0.1289554625        2.6259539905
 H         -4.3757317393        1.8911613224        2.4761118091
 H         -5.1856676797        4.3662118900       -0.7092307826
 H         -4.4008052498        3.3273797991       -1.9061386419
 H         -2.7734501596        3.7970502605       -0.2199122425
 H         -3.8961457095        3.4061856014        1.0958722680
 O         -2.2050425896        1.5196783999       -0.9252990708
 C         -1.6722436296        0.2611935898       -1.1627558799
 O         -0.8431531197        0.2488643791       -2.0959787800
 O         -3.4409349893       -1.5466430383        1.4240327616
 C         -1.5628847495       -2.2115244098       -0.5440696081
 C         -0.2220021694       -2.3303896192        0.1406273018
 C         -0.0630522393       -3.1191483884        1.2738182424
 C          1.1560234008       -3.1783495678        1.9272495623
 C          2.2385599908       -2.4477529581        1.4704300717
 C          2.0858890806       -1.6524592690        0.3428225911
 C          0.8699358605       -1.6088621495       -0.3209447788
 H          0.7564169904       -0.9739278602       -1.1873161293
 N          3.1774838905       -0.8723793993       -0.1188379396
 S          3.5538210906        0.4189522115        0.9108786194
 O          3.9750970308       -0.1200852376        2.1785521598
 O          2.4554192906        1.3627425215        0.9549206188
 C          4.9463002205        1.1334447509        0.0594705487
 C          4.7240408204        2.1283988302       -0.8730062220
 C          5.8056235403        2.6574922597       -1.5595109725
 C          7.0832709503        2.1817852799       -1.3056050523
 C          7.2899962805        1.1819223406       -0.3670047515
 C          6.2129286705        0.6493108511        0.3233500990
 H          6.3247817806       -0.1226472783        1.0663472795
 H          8.2851441205        0.8165237908       -0.1714889814
 H          7.9226643603        2.5954885995       -1.8418066727
 H          5.6467640002        3.4364380392       -2.2879015831
 H          3.7147078704        2.4747586600       -1.0319788021
 H          2.9574827404       -0.4727762800       -1.0241933299
 H          3.1843898808       -2.4617222777        1.9861319216
 H          1.2626330309       -3.7943106872        2.8073879828
 H         -0.9107575692       -3.6698458781        1.6552507129
 H         -2.2693326994       -2.8589510694       -0.0073786575
 C         -1.4969339396       -2.6667285608       -1.9879515978
 C         -1.4682780196       -4.1350353010       -2.2848543967
 C         -2.6920193296       -3.3299998313       -2.6012911572
 H         -2.9221426298       -3.1203048321       -3.6350312473
 H         -3.5648064396       -3.4616805509       -1.9783715770
 H         -0.8554511197       -4.4823306516       -3.1022400165
 H         -1.5119866595       -4.8146600204       -1.4473803462
 H         -0.9148047597       -2.0118316013       -2.6226165083
