  62
        -98.93929585
 C         -2.1988197717       -0.6983803534        0.5199327746
 C         -1.9123610353        0.0625218237       -0.6367960794
 C         -1.7744454692        1.5198110264       -0.4540908635
 C         -1.9603908061        2.0392769948        0.7732850699
 C         -1.9127943813        3.4887435189        1.1759009511
 C         -3.1643987632        4.2707663249        0.7371070802
 C         -3.6874661398        3.9320896715       -0.6571774568
 H         -3.8681989358        2.8573948197       -0.7199481310
 H         -4.6518644123        4.4317857523       -0.7804068727
 C         -2.7886389775        4.3625686455       -1.8136645920
 H         -2.6872223912        5.4502535633       -1.8013621187
 H         -3.2942162379        4.0848918737       -2.7418793865
 C         -1.3872129969        3.7511916297       -1.8307994057
 H         -0.7579080082        4.2040138709       -1.0692169699
 H         -0.9333851613        3.9981805788       -2.7952363951
 C         -1.3442798678        2.2302176398       -1.7134663339
 H         -1.9375329054        1.7893538370       -2.5226312147
 H         -0.3130901638        1.8938322128       -1.8858356867
 H         -2.9436410046        5.3375870801        0.7967863088
 H         -3.9618742858        4.0499075517        1.4504066780
 H         -1.0059295023        3.9437046693        0.7870905156
 H         -1.8514696780        3.5106475656        2.2663016541
 O         -2.2841959185        1.2700921153        1.8535832219
 C         -2.3637846607       -0.1060720897        1.7686387781
 O         -2.5944477865       -0.6819742960        2.8537784216
 O         -1.7780239124       -0.4513569240       -1.7792762388
 C         -2.2260986210       -2.2131148564        0.4341784917
 C         -0.9255871381       -2.7025685831       -0.1591152937
 C         -0.8461105276       -3.7620969350       -1.0539069165
 C          0.3742626673       -4.1326045628       -1.5923203365
 C          1.5310963035       -3.4487235011       -1.2676505457
 C          1.4645677423       -2.4002040120       -0.3567465222
 C          0.2482557599       -2.0571004597        0.2076804785
 H          0.2113801080       -1.2408218330        0.9152829402
 N          2.6198003552       -1.6870334603        0.0159370791
 S          2.4646607129       -0.0262503228        0.2908176670
 O          1.9585282313        0.1814314024        1.6258953759
 O          1.7291272674        0.6013812717       -0.7829036886
 C          4.1806973053        0.4572693054        0.2261961092
 C          4.9838357807        0.1839400853        1.3174575098
 C          6.3257197016        0.5256628839        1.2638596806
 C          6.8396170766        1.1313159136        0.1265292553
 C          6.0210403932        1.4015439325       -0.9596073402
 C          4.6780325481        1.0608775420       -0.9129991961
 H          4.0011915568        1.2565676566       -1.7292644470
 H          6.4218585160        1.8754996665       -1.8410167248
 H          7.8842059505        1.3967842695        0.0876770702
 H          6.9642426086        0.3196220275        2.1076035199
 H          4.5366200683       -0.2791467967        2.1815746270
 H          3.4031704566       -1.8775621531       -0.5951804831
 H          2.4763271847       -3.7192218164       -1.7132784715
 H          0.4211739406       -4.9530326701       -2.2923256946
 H         -1.7420396352       -4.2880250276       -1.3411029416
 H         -2.2953032454       -2.5770412125        1.4706424753
 C         -3.4461766009       -2.6820793273       -0.3322708176
 C         -4.1041456489       -3.9844521470        0.0093336191
 C         -4.7738646299       -2.6913776762        0.3618950692
 H         -5.6491114221       -2.3920127336       -0.1947627670
 H         -4.7894645033       -2.3855256847        1.3981760040
 H         -4.5252539932       -4.5746010886       -0.7906198753
 H         -3.6760463936       -4.5658894446        0.8119034126
 H         -3.4246079475       -2.3715010399       -1.3706820616
