  62
        -98.94048036
 C         -2.3162375517       -0.7967356862        0.1066534781
 C         -3.0751556281       -0.1377616242        1.1099373991
 C         -3.9526215163        0.9467738736        0.6591790256
 C         -3.9854893705        1.2760826249       -0.6443847229
 C         -4.8078682327        2.3742232739       -1.2621121055
 C         -6.2539606495        1.9689540316       -1.5787171522
 C         -7.1675574081        1.8147084424       -0.3621412868
 H         -7.1054461966        2.7126445998        0.2533420923
 H         -8.1907527716        1.7467692850       -0.7369972394
 C         -6.8740505871        0.5772343952        0.4976111779
 H         -6.2651862811       -0.1271865076       -0.0739672649
 H         -7.8110544894        0.0690726658        0.7362532613
 C         -6.1710894781        0.8767002930        1.8217008068
 H         -6.8274640676        1.4741280467        2.4581654619
 H         -5.9801290562       -0.0715665798        2.3304024986
 C         -4.8327257684        1.6120690272        1.6737599831
 H         -5.0036921395        2.6538752646        1.4034179595
 H         -4.3144192590        1.5789043675        2.6350508655
 H         -6.2389690568        1.0344463029       -2.1444628787
 H         -6.6741053957        2.7421125756       -2.2261323384
 H         -4.8082935557        3.2446228551       -0.6053137925
 H         -4.3132802201        2.6442647366       -2.1977394122
 O         -3.2303157867        0.6364327435       -1.5745384145
 C         -2.3875862352       -0.4165420215       -1.2337865180
 O         -1.7771981733       -0.8940124242       -2.2097751358
 H          0.1704374576       -0.4465577276       -1.0324652149
 C          0.6579559766       -0.6870083671       -0.0986795474
 C         -0.0187833119       -1.4472352705        0.8450920375
 C          0.6295422110       -1.7615798334        2.0333988200
 C          1.9219172615       -1.3242806539        2.2667645639
 C          2.5906638220       -0.5629464273        1.3251645556
 C          1.9518983789       -0.2433069906        0.1339287887
 N          2.6132101411        0.5444998873       -0.8245297080
 S          4.1585909051        0.0827776614       -1.2936417256
 O          4.3393984641        0.6420319169       -2.6150914169
 O          4.3438992158       -1.3444660048       -1.1676698993
 C          5.2220953539        0.9405727822       -0.1516780086
 C          6.1557432064        0.2371681517        0.5838505735
 C          6.9780979885        0.9291706166        1.4596040217
 C          6.8530239685        2.3043921689        1.5831800413
 C          5.9122591830        2.9964290697        0.8348096405
 C          5.0885507487        2.3110572064       -0.0436841220
 H          4.3479755394        2.8108538103       -0.6455820309
 H          5.8176047598        4.0658726535        0.9334413845
 H          7.4924663383        2.8406125589        2.2664508383
 H          7.7108120299        0.3933906145        2.0413462815
 H          6.2124727346       -0.8324202576        0.4590266663
 H          2.0438214417        0.7485001584       -1.6336824868
 H          3.5959664644       -0.2175281545        1.5023185770
 H          2.4133504664       -1.5752281526        3.1942086529
 H          0.1096670131       -2.3434868089        2.7802079360
 C         -1.4207388769       -1.9308266070        0.5732217901
 H         -1.8511549329       -2.2449347938        1.5373400300
 C         -1.4559365852       -3.1400014189       -0.3523873597
 C         -0.3047846500       -3.5701122314       -1.2067037890
 C         -0.6838569415       -4.3780988565       -0.0040641721
 H         -1.1519636421       -5.3395719346       -0.1505244389
 H         -0.0273978408       -4.3296036519        0.8515849325
 H         -0.5296680663       -3.9564089791       -2.1893732759
 H          0.6091395617       -2.9970849216       -1.1704686452
 H         -2.4431342677       -3.2894607580       -0.7787261993
 O         -3.0205547478       -0.4482142112        2.3292593716
