  62
        -98.93799753
 C         -2.4281828694       -0.3967736554        0.4686843799
 C         -3.2194249674       -0.3473810455       -0.7061737016
 C         -4.3191380087        0.6298307144       -0.6892999918
 C         -4.4905788211        1.4382283425        0.3709213306
 C         -5.5458793824        2.5008258585        0.5167665440
 C         -6.8990706616        1.9724361135        1.0122177102
 C         -7.6956053354        1.1622868508       -0.0113983436
 H         -8.7041196842        1.0428119626        0.3895630109
 H         -7.7791010189        1.7313029743       -0.9378196793
 C         -7.1156220224       -0.2274970862       -0.3090837984
 H         -7.9190506385       -0.9675840431       -0.2969315084
 H         -6.4133489930       -0.5055456098        0.4803495026
 C         -6.4120472459       -0.3445781961       -1.6612858224
 H         -7.1370336575       -0.1980943271       -2.4649919017
 H         -6.0095176812       -1.3567449147       -1.7516756800
 C         -5.2560520313        0.6444821589       -1.8595156995
 H         -4.6898340289        0.3374346902       -2.7421275074
 H         -5.6445932584        1.6490989812       -2.0242723013
 H         -7.4989261580        2.8371941472        1.3051654578
 H         -6.7314810114        1.3666946517        1.9058847028
 H         -5.6814696199        3.0164283678       -0.4343159352
 H         -5.1664191972        3.2161998102        1.2495558721
 O         -3.6801675397        1.3906294843        1.4624426723
 C         -2.6548145257        0.4654075705        1.5450646135
 O         -2.0185053254        0.5037612196        2.6185714310
 O         -3.0363796749       -1.0640255400       -1.7218909215
 C         -1.2783837750       -1.3731763413        0.6563627019
 C          0.0046756509       -0.7987750335        0.1136959003
 C          0.0965924499       -0.3435701506       -1.1980869647
 C          1.2871894043        0.1707207094       -1.6779406783
 C          2.4040541767        0.2488892777       -0.8638894348
 C          2.3214170025       -0.1958252990        0.4482750812
 C          1.1260620148       -0.7183866442        0.9258969199
 H          1.0628360381       -1.0545362307        1.9525481454
 N          3.4471522414       -0.1007776219        1.2837048671
 S          4.9019544391       -0.7310606610        0.7305945262
 O          4.6840279829       -1.8224212465       -0.1901791046
 O          5.6580748018       -1.0376916856        1.9249592337
 C          5.6733075229        0.6355406017       -0.1095094835
 C          5.8504143890        1.8141974891        0.5884008749
 C          6.4616222199        2.8825956645       -0.0480241845
 C          6.8857757120        2.7541094556       -1.3624215111
 C          6.7034061716        1.5630260379       -2.0481536696
 C          6.0915912147        0.4906184863       -1.4177167824
 H          5.9237838644       -0.4525648020       -1.9129275977
 H          7.0341014780        1.4651261265       -3.0696855431
 H          7.3614233702        3.5873994151       -1.8551171069
 H          6.6049619540        3.8106630377        0.4816094034
 H          5.5099315591        1.8726902719        1.6088026243
 H          3.2728839680       -0.3822817260        2.2376816370
 H          3.3328767921        0.6506464619       -1.2347255229
 H          1.3465730165        0.5172704055       -2.6985430145
 H         -0.7731464187       -0.4038505116       -1.8345778312
 H         -1.1607178155       -1.4665782281        1.7479273176
 C         -1.5857745979       -2.7655244304        0.1206468476
 C         -0.9001569886       -3.3820830522       -1.0574517907
 C         -0.5972513299       -3.8762204780        0.3230447482
 H         -0.9603404194       -4.8478110830        0.6223596308
 H          0.3634880526       -3.6157026401        0.7432793723
 H         -1.4958188529       -3.9984115879       -1.7132902763
 H         -0.1412380329       -2.8116746147       -1.5688716188
 H         -2.6321923257       -3.0228842083        0.2501042478
