  62
        -98.94674449
 C          1.5693201772        1.4979493777       -0.0071060423
 C          2.4036071012        0.9069763919        0.9706195777
 C          3.1188322760       -0.3033474191        0.5531158989
 C          2.9542822052       -0.7792752543       -0.6951605804
 C          3.6776844590       -1.9570986629       -1.2910329188
 C          3.0478706110       -3.3198716944       -0.9753251915
 C          3.2023949400       -3.7924934865        0.4700801114
 H          2.8988685356       -4.8406930720        0.5006215546
 H          4.2534166993       -3.7514052118        0.7576425998
 C          2.3586393795       -3.0032326144        1.4808949193
 H          1.5860349326       -2.4411201331        0.9500035209
 H          1.8455522043       -3.6968944082        2.1507982169
 C          3.1641059545       -2.0411669717        2.3546832070
 H          3.8503187972       -2.6083955679        2.9876242455
 H          2.4710182347       -1.5056443700        3.0091517007
 C          3.9732188847       -1.0014680530        1.5675693869
 H          4.3400597132       -0.2485096229        2.2696279949
 H          4.8283238742       -1.4762701266        1.0868955316
 H          1.9878477855       -3.2757436430       -1.2268887058
 H          3.5212323809       -4.0561610083       -1.6287950266
 H          3.6603401818       -1.8139577609       -2.3735285598
 H          4.7162991124       -1.9485519820       -0.9582081930
 O          2.1160004314       -0.2007178083       -1.5946777336
 C          1.3905790826        0.9379710799       -1.2726427111
 O          0.6459260079        1.3464052085       -2.1813709444
 H         -0.4942295316        0.7795267198        1.5046932854
 C         -1.1762543535        1.4130413870        0.9505307984
 C         -0.6710225323        2.5184602003        0.2750489459
 C         -1.5565228564        3.3250099675       -0.4262211227
 C         -2.9079706790        3.0224739845       -0.4570516521
 C         -3.4057657611        1.9205901357        0.2131316956
 C         -2.5277558989        1.1089101559        0.9219184471
 N         -3.0241072765       -0.0197822105        1.6098011529
 S         -3.7200389751       -1.2369436169        0.6953845743
 O         -4.8611387041       -0.7008982866       -0.0007032153
 O         -3.9816599692       -2.3128267404        1.6236693861
 C         -2.4711042634       -1.7409184192       -0.4744157325
 C         -2.1904301625       -0.9247483360       -1.5524684577
 C         -1.1975257931       -1.3063183327       -2.4405308167
 C         -0.5141355405       -2.4957861744       -2.2418188063
 C         -0.8086492477       -3.3057593941       -1.1550082676
 C         -1.7896570985       -2.9215995222       -0.2555356076
 H         -2.0491876011       -3.5191429179        0.6036680228
 H         -0.2792816843       -4.2335486267       -1.0038035911
 H          0.2529114785       -2.7875798720       -2.9425734727
 H         -0.9487759954       -0.6625524514       -3.2686447308
 H         -2.7432807993       -0.0095564708       -1.6877916809
 H         -2.3466771159       -0.4291794992        2.2381548031
 H         -4.4519632417        1.6632133881        0.1836321504
 H         -3.5839908774        3.6558158679       -1.0113072410
 H         -1.1899355979        4.1882606702       -0.9564224520
 C          0.8147867000        2.7679538293        0.3426017117
 H          1.0754027738        2.9823667008        1.3899896143
 C          1.2824886105        3.9206065141       -0.5199789785
 C          1.1881148288        5.3275903391       -0.0124453002
 C          2.5247793847        4.6602166040       -0.1267768011
 H          3.2004275078        4.9840114878       -0.9041435895
 H          3.0220650683        4.3486957941        0.7803368645
 H          0.9480517259        6.1140590900       -0.7119132150
 H          0.7791283989        5.4764209692        0.9754647202
 H          1.1204747823        3.7438303619       -1.5771573988
 O          2.5482339295        1.3730094013        2.1339309441
