  62
        -98.93134172
 C         -2.0444986178       -1.1538601231        0.2213370740
 C         -2.4844423165       -0.1316742214        1.0947288187
 C         -2.9168276797        1.1374438342        0.4821414756
 C         -2.8481313421        1.2693020260       -0.8544053993
 C         -3.2045629626        2.4594986028       -1.7091828550
 C         -4.5019665488        3.2037460613       -1.3581451028
 C         -4.2644004525        4.5843798890       -0.7439655896
 H         -3.4263408663        5.0548491284       -1.2622087318
 H         -5.1472106770        5.2024829847       -0.9214590108
 C         -3.9934570980        4.5886744564        0.7593854182
 H         -4.9163618935        4.3535892544        1.2939336713
 H         -3.7039146226        5.6038296544        1.0405975316
 C         -2.9056224083        3.6218017650        1.2319118365
 H         -2.0621853426        3.6208490497        0.5413267840
 H         -2.5277269394        3.9849017673        2.1903524144
 C         -3.4084354027        2.1855572364        1.4428869830
 H         -3.0898818218        1.8268229490        2.4268133826
 H         -4.5022844280        2.1702981807        1.4554143364
 H         -5.1115580667        2.5928125697       -0.6943645817
 H         -5.0662670221        3.3395398118       -2.2821220575
 H         -2.3600743350        3.1535616704       -1.6940738623
 H         -3.2648566409        2.0672207541       -2.7270413953
 O         -2.3819273660        0.2711255062       -1.6569469923
 C         -1.9513936372       -0.9459462782       -1.1545097917
 O         -1.5304985539       -1.7295941981       -2.0258567642
 H          0.5253784910       -0.8235163797        0.5699060013
 C          0.7674723244       -1.8171116504        0.2183485595
 C         -0.2009699154       -2.8135646000        0.2673918819
 C          0.1310486146       -4.0828194973       -0.1857791933
 C          1.3995004315       -4.3389455315       -0.6788256889
 C          2.3552582863       -3.3433761732       -0.7342456755
 C          2.0286804289       -2.0635497133       -0.2941363373
 N          2.9628544122       -1.0207881917       -0.4000769781
 S          2.7762370004        0.4095741131        0.4585952042
 O          2.6503095834        0.1426216273        1.8754220366
 O          1.7205275268        1.1865680284       -0.1438950718
 C          4.3536621391        1.1686871208        0.1209508953
 C          5.3517129595        1.1236631145        1.0757398664
 C          6.5829679862        1.6910579084        0.7863049264
 C          6.7950023054        2.2880978326       -0.4471236908
 C          5.7832213138        2.3266954252       -1.3953683067
 C          4.5498335627        1.7621118062       -1.1119381717
 H          3.7311010524        1.7743364473       -1.8127667720
 H          5.9503390083        2.7938067850       -2.3524850604
 H          7.7537789133        2.7286154891       -0.6704702018
 H          7.3700421009        1.6651287479        1.5224655353
 H          5.1374174692        0.6551966229        2.0227762963
 H          3.9223171353       -1.3334656301       -0.4386252366
 H          3.3396812949       -3.5431653193       -1.1283122457
 H          1.6447145176       -5.3303113665       -1.0286365330
 H         -0.6050059186       -4.8693918086       -0.1700223804
 C         -1.5502601326       -2.4491001092        0.8378369308
 H         -1.4005305738       -2.2001021669        1.9033172477
 C         -2.5568954410       -3.5900388443        0.7982618141
 C         -4.0204818397       -3.3301531687        0.6061509403
 C         -3.2330551519       -4.0094908191       -0.4715517824
 H         -3.4004949474       -5.0633361793       -0.6394363059
 H         -2.9959826366       -3.4533692986       -1.3646761271
 H         -4.7232419284       -3.9148064894        1.1808312939
 H         -4.3307576844       -2.3076852792        0.4450811916
 H         -2.3036194752       -4.3799554714        1.4987590905
 O         -2.5103724423       -0.2712990939        2.3492747761
