  62
        -98.93274483
 C         -2.6127683131       -0.2041522869        0.1521142611
 C         -2.0405528403        0.6281417128       -0.8388793793
 C         -1.6182531077        1.9766991334       -0.4069006274
 C         -1.8705380283        2.3779287377        0.8502878345
 C         -1.5172943346        3.6767770233        1.5315192945
 C         -1.6472091733        4.9684159322        0.7114652496
 C         -0.3008745567        5.5741955259        0.3096688109
 H         -0.4362388467        6.6448861612        0.1412868256
 H          0.3925190291        5.4592268330        1.1452597034
 C          0.3308224757        4.9859933541       -0.9510041630
 H         -0.2311394795        5.3180425089       -1.8266414679
 H          1.3405809134        5.3936650060       -1.0376432985
 C          0.4141558887        3.4590269408       -0.9879633900
 H          0.7133217972        3.0579547355       -0.0187461620
 H          1.1979809825        3.1735546259       -1.6938202394
 C         -0.8891364120        2.7852533312       -1.4439596340
 H         -1.5691837472        3.5264594547       -1.8735253056
 H         -0.6657546826        2.0733865362       -2.2448474881
 H         -2.2630971820        4.7894624172       -0.1678965030
 H         -2.1705110607        5.6992867291        1.3303115028
 H         -2.1765275511        3.7232393116        2.4019317058
 H         -0.4989528713        3.5827621044        1.9194228802
 O         -2.5095292166        1.5735597002        1.7485751159
 C         -2.8338970700        0.2663823790        1.4477444303
 O         -3.3350466270       -0.3674349042        2.4003039843
 H         -0.3484340687       -1.2010609417       -0.8188544766
 C         -0.4335077086       -2.0703337386       -0.1860198301
 C         -1.6734238779       -2.4837780486        0.2770849032
 C         -1.7406485024       -3.6227479433        1.0710946912
 C         -0.5904330232       -4.3135951632        1.4092223154
 C          0.6493353999       -3.8653230273        0.9904599127
 C          0.7255275121       -2.7316905168        0.1891580974
 N          1.9592492375       -2.2279363174       -0.2521617073
 S          2.1282910522       -0.5422699285       -0.3132045251
 O          1.4340360157        0.0660993198        0.7995562066
 O          1.7780456895       -0.0878600737       -1.6334381838
 C          3.8936067494       -0.3987473455       -0.0901873601
 C          4.4013910172       -0.2323441082        1.1844504692
 C          5.7752357293       -0.1653328780        1.3560899511
 C          6.6139854562       -0.2693863508        0.2564878896
 C          6.0899820826       -0.4349978347       -1.0169789143
 C          4.7171683945       -0.5013551313       -1.1953737666
 H          4.2621287281       -0.6209347484       -2.1647969476
 H          6.7445254580       -0.5124388829       -1.8700151766
 H          7.6825828455       -0.2184740500        0.3929817050
 H          6.1847632926       -0.0328946662        2.3445353981
 H          3.7099722982       -0.1482441339        2.0078271328
 H          2.7505845956       -2.6679306897        0.1979235165
 H          1.5499220780       -4.3836436137        1.2827403343
 H         -0.6571803764       -5.1954858767        2.0280333292
 H         -2.6996016358       -3.9515683551        1.4429783471
 C         -2.9139224785       -1.6809833603       -0.0474142566
 H         -3.6794593132       -1.9376081744        0.6987554124
 C         -3.4424911033       -2.0472365661       -1.4193837123
 C         -4.2956868234       -3.2696402097       -1.5700440386
 C         -4.9062756533       -1.9077117357       -1.7047871931
 H         -5.2070209200       -1.5655800919       -2.6833141299
 H         -5.5370676626       -1.5495716646       -0.9039778796
 H         -4.1773987164       -3.8703033179       -2.4585928329
 H         -4.5220730732       -3.8378043156       -0.6807269378
 H         -2.7546869832       -1.8084015359       -2.2196594753
 O         -1.8663410626        0.2846044422       -2.0393004697
