  62
        -98.94518048
 C          2.0644062815        0.9650911257        0.0581070936
 C          2.7457976791        0.2231201588        1.0513608175
 C          3.3824383816       -1.0219634150        0.6028475058
 C          3.2377909965       -1.4085809164       -0.6780745839
 C          3.8633602554       -2.6333868726       -1.2787919014
 C          5.2394791567       -2.3173457435       -1.8814435546
 C          6.1611426854       -1.5401074883       -0.9416032476
 H          5.7400408001       -0.5466562693       -0.7715269578
 H          7.1121917386       -1.4022025136       -1.4602116848
 C          6.4103744579       -2.2225517037        0.4106029925
 H          7.4764565521       -2.1661211269        0.6399866877
 H          6.1482173653       -3.2791930820        0.3463523817
 C          5.6682071422       -1.5873519277        1.5878236298
 H          5.8538002357       -0.5104466397        1.5994890240
 H          6.0797113475       -2.0008375212        2.5123659156
 C          4.1515243712       -1.8147440841        1.6223914457
 H          3.7872842203       -1.4800336024        2.5983618242
 H          3.9358712541       -2.8809219995        1.5242193971
 H          5.0918521378       -1.7232390308       -2.7861732851
 H          5.7147759507       -3.2578103072       -2.1659399070
 H          3.2047562110       -3.0019058974       -2.0673454111
 H          3.9575081712       -3.4000470917       -0.5119149853
 O          2.5325134829       -0.6956052796       -1.5925572350
 C          1.9304064666        0.5076211970       -1.2535060634
 O          1.3231713339        1.0590107473       -2.1897363609
 O          2.8105036407        0.5813183371        2.2595722594
 C          1.3791717762        2.2628874473        0.4518531743
 C         -0.1105231674        2.0967636509        0.2790496776
 C         -0.9015872260        2.9338855657       -0.4950316384
 C         -2.2544519589        2.6780424548       -0.6434790346
 C         -2.8458781385        1.5926364145       -0.0239236948
 C         -2.0646387357        0.7548812774        0.7616765687
 C         -0.7135923071        1.0157559320        0.9121172757
 H         -0.1045686861        0.3556639439        1.5188447009
 N         -2.6611175800       -0.3604853762        1.3927093308
 S         -3.2137779918       -1.5580898443        0.3428058574
 O         -3.2423765365       -2.7716299465        1.1313207988
 O         -2.4293522961       -1.5999147310       -0.8710343978
 C         -4.8831119512       -1.0584832038       -0.0190686144
 C         -5.2397531069       -0.7402894272       -1.3146404876
 C         -6.5453494382       -0.3517845806       -1.5727481454
 C         -7.4644548567       -0.2886102429       -0.5364317816
 C         -7.0899584142       -0.6131231707        0.7591948622
 C         -5.7870712947       -1.0034987891        1.0240607109
 H         -5.4542120248       -1.2699342724        2.0132178854
 H         -7.8076528480       -0.5626092960        1.5620022460
 H         -8.4790577188        0.0151103051       -0.7403639340
 H         -6.8379542989       -0.0991112153       -2.5792325082
 H         -4.4877142049       -0.7984412446       -2.0854422536
 H         -2.0535839128       -0.7876111120        2.0790761898
 H         -3.8975871653        1.3884068534       -0.1418174499
 H         -2.8558729267        3.3326691492       -1.2554467191
 H         -0.4569880574        3.7783064113       -0.9951058590
 H          1.5872651117        2.3885474075        1.5247624180
 C          1.9609022320        3.4393136323       -0.3008158284
 C          1.8708152521        4.8179659861        0.2800904299
 C          3.1894771636        4.1079714695        0.2364837460
 H          3.9382820454        4.4483998177       -0.4628537637
 H          3.5980851255        3.7272405012        1.1612861489
 H          1.7159325514        5.6504318798       -0.3892100307
 H          1.3845281087        4.9245669016        1.2378076596
 H          1.8824717040        3.3273758143       -1.3760791159
