  62
        -98.94055974
 C         -2.0809279283       -0.9342749408        0.2693667688
 C         -1.9465774213        0.0433114695       -0.7478378966
 C         -2.0805567368        1.4434461862       -0.3144000123
 C         -2.2927142237        1.7234434541        0.9829795803
 C         -2.4828003752        3.1013857968        1.5470536290
 C         -3.9640029668        3.5054744955        1.5507064260
 C         -4.6728555998        3.2689572005        0.2171670680
 H         -4.7117011594        2.1951470548        0.0209823850
 H         -5.7026628212        3.6140959056        0.3307551801
 C         -4.0250269863        3.9777175087       -0.9803897985
 H         -4.8099514145        4.4469358015       -1.5771150089
 H         -3.3654018696        4.7716583368       -0.6285279852
 C         -3.2454893359        3.0536629345       -1.9180255071
 H         -3.8728140014        2.2057573709       -2.2039648559
 H         -3.0114658505        3.6103878820       -2.8293285675
 C         -1.9235426413        2.5067652448       -1.3647410192
 H         -1.3097852369        3.3279759955       -0.9871738480
 H         -1.3799348084        2.0338868922       -2.1885769534
 H         -4.4778104094        2.9239560995        2.3194496012
 H         -4.0322543975        4.5611467016        1.8193587452
 H         -2.1089669585        3.1045738054        2.5724272357
 H         -1.9012152024        3.8089091917        0.9588502510
 O         -2.4105039263        0.7620173645        1.9338638198
 C         -2.2884339147       -0.5752337097        1.6038965395
 O         -2.3983822204       -1.3512955521        2.5764546137
 O         -1.7255930167       -0.2117871064       -1.9621211324
 C         -1.8873258751       -2.4249963799        0.0422545958
 C         -0.4298419917       -2.7884085050        0.2201228615
 C         -0.0590075108       -3.9547138939        0.8800436292
 C          1.2759990005       -4.2573671488        1.0790411500
 C          2.2656546575       -3.3892541881        0.6539072782
 C          1.9045050030       -2.2241114589       -0.0122298289
 C          0.5668630222       -1.9481267370       -0.2508812020
 H          0.3142701132       -1.0441460518       -0.7829817024
 N          2.8688285584       -1.3024928666       -0.4512561646
 S          2.4795165475        0.3395088652       -0.3032698133
 O          1.7100423513        0.5607218639        0.9007467233
 O          1.8961848446        0.7927840835       -1.5399654438
 C          4.1103667735        1.0432997360       -0.1276013523
 C          4.6096151270        1.2779094673        1.1396581090
 C          5.8894294288        1.7937410690        1.2714883687
 C          6.6455678128        2.0612845882        0.1400849380
 C          6.1309713029        1.8209517642       -1.1253558142
 C          4.8515437378        1.3065663812       -1.2642202891
 H          4.4043914542        1.1125438094       -2.2252187081
 H          6.7202432570        2.0330962447       -2.0027483308
 H          7.6409745946        2.4626454185        0.2456279638
 H          6.2899731565        1.9849177954        2.2539508231
 H          3.9806898289        1.0623922419        1.9887833438
 H          3.7955522764       -1.5015742550       -0.0988849947
 H          3.3065377626       -3.6072326694        0.8385831524
 H          1.5489947713       -5.1658091998        1.5940476835
 H         -0.8256422160       -4.6145791689        1.2576463316
 H         -2.4501226584       -2.9285321767        0.8417457567
 C         -2.3987081008       -2.9313490508       -1.2919900239
 C         -2.8318791597       -4.3599268304       -1.4186652163
 C         -3.8515269559       -3.2620684963       -1.4466438781
 H         -4.3350025171       -3.0226567073       -2.3815400134
 H         -4.4861333776       -3.1336301233       -0.5815734739
 H         -2.6124812506       -4.8816746417       -2.3372962306
 H         -2.7851950938       -4.9809742071       -0.5372770764
 H         -1.8997869662       -2.4776763210       -2.1382047801
