  62
        -98.94015326
 C          1.6958527331        1.3936692321        0.4046894576
 C          1.3272223324        0.3246994806       -0.4434567804
 C          1.9242535632       -0.9906477025       -0.1511136472
 C          2.7295148079       -1.1309954087        0.9168886193
 C          3.4180984786       -2.3502912036        1.4940304066
 C          3.5613808880       -3.6299371473        0.6739258936
 C          4.4753573915       -3.5115758272       -0.5449341578
 H          4.4320043748       -4.4541836041       -1.0948129347
 H          5.5025125072       -3.3752567002       -0.1974605165
 C          4.1529502185       -2.3643101671       -1.4988018280
 H          4.8689231641       -2.4048322738       -2.3240490688
 H          4.3039244382       -1.4108518796       -0.9884525996
 C          2.7485095756       -2.3898845030       -2.0989141807
 H          2.5661014797       -3.3600739392       -2.5645099102
 H          2.7143585690       -1.6297309366       -2.8836445817
 C          1.5997909170       -2.0929189104       -1.1177040661
 H          1.2878516162       -2.9865586243       -0.5814324669
 H          0.7390053058       -1.7492454832       -1.6982453503
 H          2.5824903474       -3.9996150691        0.3826259671
 H          3.9959488349       -4.3785853410        1.3421791391
 H          4.4113369416       -2.0115731968        1.8066836168
 H          2.8693508406       -2.5877538984        2.4128193635
 O          3.0171749164       -0.0804617359        1.7415031256
 C          2.5070046074        1.1853477662        1.5197162745
 O          2.8433438139        2.0300840427        2.3754145397
 H         -0.6012336694        1.4166718784        1.7123511958
 C         -1.1047776503        1.9024854954        0.8882212554
 C         -0.3736662405        2.6742015863       -0.0075311289
 C         -1.0470475311        3.2869418827       -1.0560461911
 C         -2.4119116432        3.1117513793       -1.2103613990
 C         -3.1261631278        2.3047131453       -0.3442603138
 C         -2.4600951089        1.6878022948        0.7086495786
 N         -3.1295840248        0.8261072147        1.6048836078
 S         -2.6752901987       -0.7882091985        1.5775791816
 O         -3.5141457868       -1.4314973378        2.5670478174
 O         -1.2531902865       -0.9050690155        1.7735553346
 C         -3.1506015565       -1.3520642326       -0.0476603412
 C         -2.3743997358       -1.0092548712       -1.1365479685
 C         -2.7961535225       -1.3944064737       -2.4005400859
 C         -3.9757854385       -2.1056935072       -2.5545107596
 C         -4.7441237599       -2.4401138251       -1.4492966682
 C         -4.3323666992       -2.0558408484       -0.1837403366
 H         -4.8947071778       -2.2935031522        0.7049074459
 H         -5.6609333789       -2.9944912748       -1.5696064478
 H         -4.2968497739       -2.4005786005       -3.5411383740
 H         -2.1939566136       -1.1284289155       -3.2545812294
 H         -1.4576356325       -0.4569316350       -0.9967520438
 H         -4.1375855549        0.8802840214        1.5413693724
 H         -4.1851635458        2.1451180289       -0.4817237373
 H         -2.9217473600        3.5934222223       -2.0306636039
 H         -0.5014733205        3.8846475706       -1.7674731303
 C          1.1132166812        2.7862501170        0.2294816669
 H          1.2595257472        3.2772703199        1.2065539572
 C          1.8324044886        3.6439816416       -0.8012473780
 C          3.2620640501        3.3775534964       -1.1648321871
 C          2.1759102018        3.1288457492       -2.1654446870
 H          2.0911550226        3.8037009014       -3.0046309880
 H          1.9079065469        2.1096296724       -2.3923087705
 H          3.7441480614        2.5258144783       -0.7065279570
 H          3.9185769775        4.2221731375       -1.3116884742
 H          1.5464215939        4.6888793586       -0.7302687948
 O          0.5278657003        0.4466604145       -1.4084440948
