  62
        -98.94247199
 C          1.1028835981        1.4174202141       -0.0248752698
 C          1.8387973068        0.7799175090        0.9992879665
 C          2.5512857859       -0.4611410310        0.6376825002
 C          2.4754269739       -0.9040755631       -0.6310609067
 C          3.1501374214       -2.1071027936       -1.2331484369
 C          4.6491385703       -1.8773983571       -1.4943094294
 C          5.3939706514       -1.1352778817       -0.3872113435
 H          6.4004412152       -0.9154732795       -0.7528861468
 H          4.9015049508       -0.1790233896       -0.2007936764
 C          5.5335030422       -1.8974467379        0.9282487183
 H          6.0936343771       -2.8184511487        0.7510149312
 H          6.1233284790       -1.2748672327        1.6059256949
 C          4.2245405814       -2.2592118697        1.6317298992
 H          4.4788717225       -2.6083327256        2.6370640075
 H          3.7312735994       -3.0900273620        1.1341797177
 C          3.2509061587       -1.0981935630        1.8132509988
 H          3.7613379262       -0.2814076209        2.3367599458
 H          2.4487651027       -1.4197176672        2.4911258045
 H          4.7434869560       -1.2861915313       -2.4081318782
 H          5.1219623970       -2.8452697369       -1.6678180298
 H          2.9904301785       -2.9746947980       -0.5993024918
 H          2.6584119255       -2.3010007182       -2.1887374261
 O          1.7654903673       -0.2466358145       -1.5913579035
 C          1.0385749258        0.9002218407       -1.3172150989
 O          0.3992345618        1.3466080619       -2.2871160040
 O          1.9064227043        1.2299751110        2.1762879500
 C          0.3017182803        2.6628430420        0.3087767154
 C         -1.1694310330        2.3568415949        0.1638536862
 C         -2.0359507394        3.0935904404       -0.6322059502
 C         -3.3716417422        2.7410569088       -0.7228939636
 C         -3.8667589676        1.6521757029       -0.0301173548
 C         -3.0098857121        0.9132400433        0.7789881524
 C         -1.6757377949        1.2735653829        0.8739608908
 H         -1.0188887935        0.6985066557        1.5110546366
 N         -3.4902219573       -0.1844111187        1.5174050922
 S         -2.6715831019       -1.6410796677        1.4766873120
 O         -3.6001971330       -2.5890242300        2.0533727429
 O         -1.3949306412       -1.5207285418        2.1322333190
 C         -2.4568836726       -1.9852213971       -0.2574326076
 C         -1.2832957994       -1.6099987610       -0.8767977536
 C         -1.1513652204       -1.8056352696       -2.2420679703
 C         -2.1924636310       -2.3737583486       -2.9594808501
 C         -3.3638629160       -2.7544290771       -2.3214537715
 C         -3.5031476703       -2.5536322364       -0.9580861398
 H         -4.3930293808       -2.8405092618       -0.4214581016
 H         -4.1681471375       -3.2008143192       -2.8837742721
 H         -2.0864159390       -2.5200931349       -4.0227896090
 H         -0.2433184092       -1.4930673258       -2.7332304478
 H         -0.4941417004       -1.1718869875       -0.2853076298
 H         -4.4824750915       -0.3438607621        1.4130006742
 H         -4.9075383937        1.3765528465       -0.1060562671
 H         -4.0344489765        3.3192834863       -1.3483170790
 H         -1.6659221790        3.9405665909       -1.1854347095
 H          0.5015595419        2.8601349686        1.3726905053
 C          0.7696678407        3.8497438141       -0.5050642339
 C          0.5602338989        5.2411292857        0.0109166918
 C          1.9369213418        4.6501879386       -0.0133867960
 H          2.6476120023        5.0226373562       -0.7358133970
 H          2.3841412962        4.3524366099        0.9240513230
 H          0.3276238146        6.0241822054       -0.6946919042
 H          0.0731852161        5.3502642168        0.9681545032
 H          0.6958277847        3.6810334892       -1.5731075430
