  62
        -98.94116834
 C          1.8907745806        1.5630644829        0.1684993403
 C          2.5877787433        0.7180185817        1.0725661484
 C          3.5167241131       -0.2498156560        0.4798614689
 C          3.6831558167       -0.2800490151       -0.8544615656
 C          4.6341646244       -1.1679522427       -1.6109054632
 C          4.0938251224       -2.5755849280       -1.8976199685
 C          4.0126397640       -3.5003376210       -0.6825453919
 H          3.8288719522       -4.5086650381       -1.0588152393
 H          4.9765223597       -3.5141081877       -0.1730366973
 C          2.9038979366       -3.1340911316        0.3139636169
 H          2.1950002420       -2.4582671328       -0.1706926457
 H          2.3565649154       -4.0376892186        0.5926168228
 C          3.3995290957       -2.4852263931        1.6065340557
 H          4.0084777094       -3.1997081368        2.1645210595
 H          2.5316167791       -2.2294613625        2.2196188459
 C          4.2201424818       -1.2064006539        1.3946849170
 H          4.3409884721       -0.7117898744        2.3614321153
 H          5.2065853962       -1.4522732890        1.0016630383
 H          3.1054893856       -2.4852665115       -2.3546606318
 H          4.7577845046       -3.0345744925       -2.6338300201
 H          4.8275262740       -0.6729966778       -2.5652312291
 H          5.5742309297       -1.2437551562       -1.0632529213
 O          2.9989669483        0.5438053035       -1.6897568746
 C          2.0741823371        1.4672671284       -1.2114685333
 O          1.5099846175        2.1116464455       -2.1160881604
 O          2.4495704510        0.7837474710        2.3223273505
 C          0.9548119343        2.5877829030        0.7868338595
 C         -0.4674705317        2.0914239722        0.8352227652
 C         -1.1984224841        2.1278177476        2.0168916084
 C         -2.5065290051        1.6756345850        2.0514714023
 C         -3.1093661862        1.1735246589        0.9123463740
 C         -2.3813314837        1.1189395259       -0.2698974614
 C         -1.0713601367        1.5753780549       -0.3032285624
 H         -0.5139941407        1.5402980620       -1.2278854211
 N         -2.9746077793        0.5919673516       -1.4289265038
 S         -3.8660753214       -0.8146986906       -1.2790475195
 O         -3.7481614816       -1.4818311266       -2.5564752425
 O         -5.2084165801       -0.4905059263       -0.8636827797
 C         -3.0615478232       -1.7646907942        0.0006267153
 C         -3.7849954304       -2.1800827021        1.0999980665
 C         -3.1433823867       -2.9055265035        2.0910836361
 C         -1.7941639122       -3.1974805971        1.9680513246
 C         -1.0812377874       -2.7754770104        0.8561992770
 C         -1.7184480149       -2.0534183067       -0.1393944388
 H         -1.1877146282       -1.7141448883       -1.0155277203
 H         -0.0304214711       -2.9995337203        0.7646620903
 H         -1.2911024484       -3.7561468661        2.7413309022
 H         -3.6951333866       -3.2361309216        2.9561546978
 H         -4.8306688827       -1.9248672466        1.1573408916
 H         -2.3546162157        0.5586405215       -2.2247990745
 H         -4.1304610700        0.8279609557        0.9173269900
 H         -3.0635465027        1.7140373692        2.9747736097
 H         -0.7309798445        2.5048337992        2.9144753769
 H          1.3032555646        2.6824998864        1.8274269994
 C          1.0773576431        3.9641918362        0.1457224187
 C          0.0167443731        4.5858117418       -0.7074104678
 C          0.2681039278        5.1127558691        0.6716402798
 H          0.7444832457        6.0749921719        0.7821291921
 H         -0.4699304113        4.8935746488        1.4284947422
 H          0.3383774470        5.1685228585       -1.5572616753
 H         -0.8915927042        4.0317966716       -0.8844339588
 H          2.1026337525        4.1832593028       -0.1367244262
