  62
        -98.94184758
 C         -2.2555849697       -0.7273405394        0.1250270776
 C         -3.4365421787       -1.0066559313        0.8630767406
 C         -4.3808391560        0.1032787724        1.0254435088
 C         -4.0672655279        1.3187637720        0.5430976496
 C         -4.9105081330        2.5600319177        0.6525408531
 C         -5.9911077675        2.6775031231       -0.4313203419
 C         -7.1745313005        1.7211727728       -0.2771078831
 H         -7.5784334411        1.8052440582        0.7322243326
 H         -7.9502307398        2.0581944035       -0.9675539346
 C         -6.8465361243        0.2528083808       -0.5821779339
 H         -5.9086834576        0.1982715064       -1.1401159797
 H         -7.6240979545       -0.1685901414       -1.2232431343
 C         -6.7418928959       -0.6429872757        0.6523082381
 H         -6.4710434347       -1.6497802859        0.3237798527
 H         -7.7142994743       -0.7009660778        1.1460649693
 C         -5.6989402807       -0.1825411012        1.6792164253
 H         -6.0580592378        0.6974959895        2.2121718263
 H         -5.5446644195       -0.9903557751        2.3986467531
 H         -5.5243266526        2.5261165101       -1.4075418733
 H         -6.3719971169        3.7009866839       -0.4012163787
 H         -4.2290719701        3.4079011432        0.5537425780
 H         -5.3755135770        2.6011773248        1.6379854951
 O         -2.8977401971        1.5652757231       -0.1020157002
 C         -1.9737562404        0.5547743535       -0.3509301286
 O         -0.9782129256        0.9442288753       -0.9903527108
 O         -3.6886716015       -2.1339041776        1.3644916543
 C         -1.2802504285       -1.8760238531       -0.0703757136
 C          0.1056754087       -1.4536687185        0.3413736790
 C          0.4387844871       -1.4243582668        1.6922611095
 C          1.6880546607       -0.9972082044        2.1007692676
 C          2.6264975657       -0.5802070282        1.1727034221
 C          2.2955116913       -0.5852014007       -0.1752219042
 C          1.0490477954       -1.0406064764       -0.5851030773
 H          0.7969831144       -1.0297889107       -1.6340264479
 N          3.2340233608       -0.1560914892       -1.1273887018
 S          4.1635911061        1.2029937792       -0.8100208302
 O          3.4872294653        2.1461004873        0.0497187832
 O          4.5667530752        1.6916843006       -2.1111801189
 C          5.5951856214        0.5394557512        0.0196182389
 C          6.2618275671       -0.5164042044       -0.5708184752
 C          7.3834366508       -1.0348365079        0.0562693504
 C          7.8200916854       -0.4900027487        1.2546439455
 C          7.1427734368        0.5724181073        1.8328477676
 C          6.0193013742        1.0948442778        1.2108756375
 H          5.4576710529        1.9166642669        1.6263571048
 H          7.4835787568        0.9957126375        2.7640968471
 H          8.6932658743       -0.8955175075        1.7408679611
 H          7.9127998096       -1.8609603188       -0.3904972785
 H          5.8921394881       -0.9093677456       -1.5030103878
 H          2.8654217580       -0.1242818918       -2.0670981397
 H          3.5965897828       -0.2303226316        1.4855147054
 H          1.9348100986       -0.9838567344        3.1515770806
 H         -0.2997215755       -1.7315268823        2.4199557795
 H         -1.6266637663       -2.6447358658        0.6392164505
 C         -1.3202745052       -2.5154454642       -1.4507012570
 C         -2.6270416751       -2.7085548133       -2.1588090761
 C         -1.6127702571       -1.7515158934       -2.7057942940
 H         -1.0816327470       -2.0288517955       -3.6051463560
 H         -1.8027580372       -0.6926998181       -2.6244334899
 H         -2.7996813316       -3.6354078838       -2.6845007528
 H         -3.5099118799       -2.3006775989       -1.6881994407
 H         -0.6008131757       -3.3244007381       -1.5357567809
