  62
        -98.93917145
 C          2.2113681619        0.8780835649       -0.0275361101
 C          3.1419979751        0.6817248191        1.0229763923
 C          3.9766821513       -0.5291325388        0.9537694956
 C          3.7905192395       -1.3896291265       -0.0619511698
 C          4.5542302842       -2.6533552187       -0.3463459929
 C          5.7192339300       -2.3791041715       -1.3127364254
 C          7.0220394746       -1.9421933474       -0.6438976637
 H          7.4577881454       -2.7941575628       -0.1179003356
 H          7.7154081154       -1.6583342281       -1.4389011107
 C          6.8941812575       -0.7743032069        0.3375506861
 H          6.2389705469       -0.0099988012       -0.0841699061
 H          7.8823095500       -0.3249592587        0.4534226163
 C          6.3770896561       -1.2009264162        1.7195040193
 H          6.4120018098       -2.2876120481        1.7934892524
 H          7.0474454324       -0.8166259514        2.4910105909
 C          4.9675456194       -0.7044391277        2.0723353010
 H          4.5305563934       -1.3722858465        2.8223163430
 H          5.0355016908        0.2835269851        2.5384185181
 H          5.3927224984       -1.6130061713       -2.0207953436
 H          5.9203939714       -3.2870781042       -1.8849060640
 H          4.9052187415       -3.1078281385        0.5753147957
 H          3.8531466659       -3.3367087091       -0.8304133335
 O          2.8681281593       -1.1765603238       -1.0395612376
 C          2.0622479860       -0.0510276734       -1.0567716880
 O          1.2843289739       -0.0068024282       -2.0306068956
 H         -0.7199499219        1.2970779369       -1.5748007257
 C         -0.9846551160        1.2820843290       -0.5291831209
 C         -0.0597404957        1.6899919044        0.4201371647
 C         -0.4110826599        1.6207357386        1.7650374584
 C         -1.6575118515        1.1589439805        2.1456285579
 C         -2.5744009387        0.7442162108        1.1953385266
 C         -2.2256790941        0.7918405268       -0.1472924422
 N         -3.1410001917        0.3446396463       -1.1188103252
 S         -3.7893193007       -1.1918628429       -0.9047896439
 O         -2.9097878998       -2.0429369737       -0.1362678257
 O         -4.1348553669       -1.6502998200       -2.2329252412
 C         -5.2912256625       -0.8860378153        0.0040558067
 C         -5.5112420459       -1.5230389644        1.2095420134
 C         -6.6902561841       -1.2727336264        1.8946572367
 C         -7.6236141310       -0.3952432921        1.3645692472
 C         -7.3890489523        0.2341212830        0.1509826158
 C         -6.2131878325       -0.0126805487       -0.5392674992
 H         -5.9934780660        0.4513267666       -1.4861556648
 H         -8.1174442711        0.9152928578       -0.2585375182
 H         -8.5392896825       -0.2011621596        1.9004438217
 H         -6.8741783692       -1.7620778553        2.8376553277
 H         -4.7541361637       -2.1931025623        1.5851621642
 H         -2.7884687751        0.4393691825       -2.0612757406
 H         -3.5432334733        0.3706152223        1.4841871031
 H         -1.9173240148        1.1159477674        3.1924034002
 H          0.3142066007        1.9165824910        2.5098264882
 C          1.3339501693        2.1189108167        0.0323540760
 H          1.7435932127        2.7215363881        0.8537470093
 C          1.3848621304        2.9366929044       -1.2412089317
 C          0.8554934157        4.3387029902       -1.2264006648
 C          2.3304001247        4.0955670617       -1.3289628243
 H          2.8220833657        4.2877379038       -2.2708720036
 H          2.9445368152        4.3061285532       -0.4657116575
 H          0.4671400437        4.7126707948       -0.2912971675
 H          0.3318642813        4.7013334469       -2.0975444071
 H          1.2412578268        2.3502755313       -2.1399804805
 O          3.2779231871        1.4933702119        1.9772341465
