  62
        -98.93197419
 C         -1.4079385794       -1.6536774348        0.3601535000
 C         -1.6756454069       -0.4002349747        0.9635281330
 C         -2.8628437719        0.3349488150        0.4910466114
 C         -3.6121884877       -0.2056477197       -0.4861596051
 C         -4.8652027955        0.3383771957       -1.1240224499
 C         -5.9281080851        0.8954840429       -0.1637379483
 C         -6.0804095089        2.4152186965       -0.2423124679
 H         -6.0123154464        2.7182546977       -1.2892034833
 H         -7.0784561907        2.6854197893        0.1099383824
 C         -5.0689300105        3.2096234144        0.5819346273
 H         -5.3008962381        3.0968165790        1.6432536129
 H         -5.1976551872        4.2656491229        0.3327520808
 C         -3.6021787610        2.8299867860        0.3644119261
 H         -3.4130023567        2.6413912864       -0.6915867090
 H         -2.9949838373        3.6900703950        0.6552954361
 C         -3.1423557151        1.6297156277        1.2048915131
 H         -2.2013433914        1.8701642017        1.7083784447
 H         -3.8665897899        1.4373239098        2.0024587818
 H         -5.7008689003        0.5908285962        0.8569999087
 H         -6.8866414821        0.4459927302       -0.4282214600
 H         -4.5850888823        1.1028881280       -1.8523168683
 H         -5.2799747464       -0.4964248140       -1.6933156971
 O         -3.2898289184       -1.3922990404       -1.0723588801
 C         -2.1912316425       -2.1446260955       -0.6838221574
 O         -2.0485329165       -3.1951863463       -1.3346518076
 H          1.9785306275       -1.1258378105        1.8192669010
 C          2.0451025705       -1.3009843403        0.7542360575
 C          1.0162074444       -1.9689703039        0.1081811312
 C          1.0978060083       -2.1526215798       -1.2692826386
 C          2.1964842069       -1.6942820250       -1.9726474780
 C          3.2238011909       -1.0297395472       -1.3239324228
 C          3.1395031290       -0.8228009676        0.0456848883
 N          4.1581873564       -0.0984057235        0.6999296820
 S          4.4021808084        1.4610448678        0.1271712272
 O          5.1377728584        1.3998604629       -1.1101934445
 O          5.0393044570        2.1736574249        1.2110423211
 C          2.7561037271        2.0811134721       -0.1633353440
 C          1.9975551637        2.4534877509        0.9283446149
 C          0.6859549469        2.8499165941        0.7300447834
 C          0.1542854513        2.8539465211       -0.5497526541
 C          0.9291927830        2.4789260190       -1.6358926349
 C          2.2441383854        2.0870693002       -1.4446730817
 H          2.8794779103        1.7904378158       -2.2628749775
 H          0.5106061057        2.4837765512       -2.6296652016
 H         -0.8723697218        3.1477455136       -0.6991971697
 H          0.0800043892        3.1373390908        1.5739065804
 H          2.4430143314        2.4370726832        1.9102368343
 H          4.0407207135       -0.0726599844        1.7034079840
 H          4.0798975445       -0.6521948294       -1.8593930886
 H          2.2519348929       -1.8498535748       -3.0394506033
 H          0.2850181355       -2.6504683090       -1.7769849508
 C         -0.1985097699       -2.4112730183        0.8813404237
 H         -0.0752871662       -2.0583413462        1.9171518471
 C         -0.3922213560       -3.9198383277        0.9318332497
 C          0.4804624615       -4.8940394048        0.2030244441
 C          0.5893125216       -4.7644507429        1.6904084907
 H          0.2163093847       -5.5632106280        2.3134102246
 H          1.4659035928       -4.2708697156        2.0833771572
 H          0.0091228991       -5.7729511414       -0.2098259521
 H          1.2892833188       -4.5116445456       -0.3993462951
 H         -1.4369264117       -4.1961081187        1.0229572929
 O         -0.9527787025        0.0813655249        1.8768076267
