  62
        -98.93472086
 C         -2.5525836381       -0.5210200656        0.3879866230
 C         -2.8582765956        0.8573764052        0.2462861082
 C         -4.1372482232        1.1837235657       -0.3954756492
 C         -4.9241864746        0.1830922192       -0.8303201466
 C         -6.2750281956        0.3636342224       -1.4587666946
 C         -7.3886265104        0.3302280818       -0.4027288750
 C         -7.1274246356        1.2387187564        0.7986222459
 H         -7.9913289674        1.1572690263        1.4618317575
 H         -6.2627763850        0.8611235642        1.3492515848
 C         -6.8944419543        2.7132039693        0.4407667785
 H         -7.4716411977        3.3355409577        1.1278503557
 H         -7.2643291219        2.9131191115       -0.5654871540
 C         -5.4375835027        3.1685521404        0.5443849950
 H         -5.0337323975        2.8853868547        1.5196751547
 H         -5.4178593968        4.2601050285        0.4866413733
 C         -4.4927916222        2.6366808785       -0.5408171829
 H         -4.9184459935        2.8318640573       -1.5272944057
 H         -3.5496121461        3.1846999453       -0.4589784235
 H         -8.3268187234        0.6170260080       -0.8812505326
 H         -7.4913495942       -0.6953343987       -0.0405645744
 H         -6.2959969225        1.3105030733       -1.9948960220
 H         -6.4351526343       -0.4494426486       -2.1688384634
 O         -4.5906023483       -1.1243134079       -0.7015089557
 C         -3.4044804339       -1.5179193827       -0.0900011487
 O         -3.2543670115       -2.7520184901       -0.0480974455
 O         -2.0930153111        1.7744076481        0.6502301718
 C         -1.2381024542       -0.8516506616        1.0718138473
 C         -0.1228011391       -0.9766248855        0.0646354794
 C         -0.2416070454       -1.8065267918       -1.0456175026
 C          0.7967145572       -1.9139793118       -1.9530181583
 C          1.9666662710       -1.1957930437       -1.7786830271
 C          2.0943045788       -0.3606988676       -0.6769319079
 C          1.0530638901       -0.2617960975        0.2386657250
 H          1.1504069736        0.3978604829        1.0904586131
 N          3.2691427057        0.3933734002       -0.5053008833
 S          4.7417261499       -0.3986636296       -0.7566802114
 O          4.9929300055       -0.4593274632       -2.1743620616
 O          4.7443731586       -1.6651991651       -0.0590385753
 C          5.8752610267        0.7410076137        0.0111981415
 C          6.2778888697        0.5205034202        1.3147135801
 C          7.1414887374        1.4257316988        1.9112178173
 C          7.5826746442        2.5308092607        1.1989422654
 C          7.1694664557        2.7383645600       -0.1087891752
 C          6.3069765306        1.8368243348       -0.7117455469
 H          5.9669269819        1.9521245692       -1.7276080089
 H          7.5167690546        3.5976026006       -0.6595055086
 H          8.2553762663        3.2331794800        1.6652422645
 H          7.4668451129        1.2657717780        2.9265628622
 H          5.9178335012       -0.3572748144        1.8271911901
 H          3.2745032178        0.8949792965        0.3726744683
 H          2.7822940618       -1.2757841621       -2.4789741576
 H          0.6944590152       -2.5654110330       -2.8083461722
 H         -1.1517498438       -2.3703735207       -1.1850693407
 H         -1.0196969901        0.0327292995        1.6916590591
 C         -1.3269137477       -2.0464083438        2.0109900143
 C         -0.6733495048       -3.3661216320        1.7475294080
 C         -0.1268310709       -2.4629621862        2.8095584491
 H         -0.2612433181       -2.7356524418        3.8452281717
 H          0.8074220198       -1.9633113703        2.5999195368
 H         -1.2098930102       -4.2553042215        2.0410140531
 H         -0.1045394744       -3.4852478893        0.8388647187
 H         -2.2843425512       -2.0849257301        2.5208391970
