  62
        -98.94239311
 C          1.8281160953       -1.1408798357        0.6629253210
 C          1.8305540482        0.2652991492        0.4967494142
 C          3.1507449401        0.9103340534        0.5504694604
 C          4.2455241676        0.1580864929        0.7645208501
 C          5.6527894478        0.6793081571        0.7855124168
 C          6.2905609593        0.6110527132       -0.6092657646
 C          5.4167410880        1.1983765733       -1.7177693141
 H          5.9805604810        1.1224834948       -2.6501565335
 H          4.5227702409        0.5808702728       -1.8322934136
 C          4.9980225535        2.6577255104       -1.4908023440
 H          5.1313491428        3.2088290038       -2.4241519957
 H          5.6496292649        3.1183043903       -0.7473392375
 C          3.5388459785        2.8407215675       -1.0693027270
 H          3.2930746666        3.9027840039       -1.1514938967
 H          2.8872297984        2.2990856816       -1.7597892964
 C          3.1980365090        2.4002058384        0.3598594415
 H          3.8960185125        2.8585153999        1.0631982902
 H          2.1913500109        2.7619298906        0.5874533481
 H          6.4885924091       -0.4364730450       -0.8484329044
 H          7.2459105930        1.1381831170       -0.5783867044
 H          5.6494788912        1.7063617630        1.1451242867
 H          6.2371933987        0.0651266593        1.4726664383
 O          4.1993232349       -1.1881517583        0.9377555044
 C          2.9958735064       -1.8720679658        0.8762186767
 O          3.0963163917       -3.1076048025        1.0210057439
 H         -2.0568242556       -1.0130823623        0.1404314234
 C         -1.4784926107       -1.1281528255       -0.7600285219
 C         -0.1778004389       -1.5998427489       -0.7013365052
 C          0.5251896985       -1.7745224633       -1.8911514601
 C         -0.0566085942       -1.4657381872       -3.1050192359
 C         -1.3456834985       -0.9644317811       -3.1588142924
 C         -2.0570513297       -0.7907845569       -1.9773225416
 N         -3.3385270249       -0.2395466718       -2.0060001248
 S         -4.4241650420       -0.1732387862       -0.7575307105
 O         -4.4519514854       -1.4115280448       -0.0141568733
 O         -5.6707328843        0.2056106278       -1.3879919721
 C         -3.9180572034        1.1524476311        0.3287411568
 C         -4.8461461174        1.5255697942        1.2837830288
 C         -4.5342530909        2.5394684803        2.1737220384
 C         -3.2973325466        3.1626360459        2.0991476565
 C         -2.3782230473        2.7784936752        1.1368217234
 C         -2.6862660256        1.7673525276        0.2379845148
 H         -1.9595721702        1.4596087662       -0.4956644952
 H         -1.4083459095        3.2461835669        1.0785752955
 H         -3.0485909697        3.9488799737        2.7945527676
 H         -5.2511052669        2.8373274739        2.9221192042
 H         -5.7949304187        1.0134787046        1.3070968252
 H         -3.7219521359        0.0047623275       -2.9037705080
 H         -1.7945983450       -0.7027833106       -4.1045511462
 H          0.5002306418       -1.6064248287       -4.0194332587
 H          1.5394507311       -2.1489555210       -1.8475122586
 C          0.5150326942       -1.9015105823        0.6046397528
 H          0.7748903598       -2.9697980343        0.6224891601
 C         -0.3249808655       -1.5814207187        1.8233698984
 C         -1.3555276314       -2.5560043344        2.3054964402
 C         -0.0967913205       -2.3456575356        3.0911720044
 H         -0.1564196077       -1.8162297218        4.0301549218
 H          0.6542253175       -3.1222718433        3.0745607392
 H         -2.2854846375       -2.1734479360        2.6991754620
 H         -1.4646941009       -3.4793059030        1.7565767756
 H         -0.5440046135       -0.5230642896        1.9129627633
 O          0.7905526501        0.9473865934        0.3116657205
