  62
        -98.94285476
 C         -1.5687953798       -1.4593922893        0.1196297616
 C         -2.7042728743       -0.9796228310        0.8187500532
 C         -3.3600644145        0.2043936459        0.2516867386
 C         -2.8485099983        0.7858133368       -0.8484063689
 C         -3.4079401880        1.9922366043       -1.5534329599
 C         -2.9903235498        3.3337634732       -0.9351789049
 C         -3.6537959231        3.6726571289        0.4000629802
 H         -3.4462910259        4.7250597796        0.6039642644
 H         -4.7350609837        3.5670246075        0.3072770044
 C         -3.1519284113        2.8331804457        1.5833970477
 H         -2.2077432756        2.3530145308        1.3145173017
 H         -2.9465071425        3.4869599018        2.4342680565
 C         -4.1324475615        1.7616905558        2.0599742984
 H         -5.0308595470        2.2382984996        2.4584388823
 H         -3.6620922624        1.2006137587        2.8718098157
 C         -4.5497100928        0.7625350316        0.9732030728
 H         -5.0669256262       -0.0703633234        1.4562323656
 H         -5.2332494384        1.2368236560        0.2691011620
 H         -1.9056382362        3.3405724956       -0.8064433337
 H         -3.2466437347        4.1170007433       -1.6522802423
 H         -3.0340095433        1.9533231282       -2.5786785384
 H         -4.4962638577        1.9281264483       -1.5795504258
 O         -1.7403033667        0.3132527228       -1.4751087717
 C         -1.0648122495       -0.8095641636       -1.0099094056
 O         -0.0611450623       -1.1053998534       -1.6798124108
 O         -3.1460507202       -1.5127268761        1.8721593619
 C         -0.8376292229       -2.6598222249        0.6947565435
 C          0.6442021730       -2.3784291993        0.7255010016
 C          1.6053161409       -3.2058937040        0.1621020670
 C          2.9435671382       -2.8515324533        0.1964080613
 C          3.3518032747       -1.6684616624        0.7828313807
 C          2.3972441617       -0.8329034491        1.3490286285
 C          1.0621957495       -1.1991755399        1.3315764768
 H          0.3212953005       -0.5431708214        1.7735740383
 N          2.7950013106        0.3908710648        1.9271434095
 S          3.6303740993        1.4523489354        0.9329601525
 O          4.9752512179        0.9657168748        0.7554096373
 O          3.5016767333        2.7433875746        1.5723164066
 C          2.7646043233        1.4428808571       -0.6243201828
 C          3.2065939054        0.6280325821       -1.6459750413
 C          2.4941635805        0.5982234429       -2.8330938017
 C          1.3604250177        1.3802634842       -2.9782094798
 C          0.9324416921        2.1976655458       -1.9445888573
 C          1.6341753553        2.2250792222       -0.7514543934
 H          1.3333804725        2.8489851305        0.0763381757
 H          0.0468300552        2.8016385421       -2.0645709815
 H          0.8000471574        1.3473183766       -3.8989645753
 H          2.8179454009       -0.0431128216       -3.6365640924
 H          4.0957840257        0.0379686373       -1.4968210379
 H          2.0333541644        0.8820851654        2.3735584781
 H          4.3872336440       -1.3687330372        0.8003440927
 H          3.6789266177       -3.5031930994       -0.2505172311
 H          1.3075958222       -4.1177954319       -0.3281799552
 H         -1.1933966284       -2.7231269972        1.7374288300
 C         -1.1909607156       -3.9860450874        0.0387307688
 C         -2.4967602288       -4.1738099935       -0.6725856438
 C         -1.2165847324       -4.1566149897       -1.4497341104
 H         -0.8591189052       -5.0875366336       -1.8651006773
 H         -0.9899527244       -3.2919054830       -2.0529351056
 H         -3.0155169944       -5.1129809811       -0.5507624473
 H         -3.1541433366       -3.3198885769       -0.7491973755
 H         -0.8395682040       -4.8327700749        0.6205101595
