  62
        -98.93963717
 C         -2.4738297967       -0.9771165164       -0.5499323871
 C         -3.6779245068       -0.8543674432        0.1940728666
 C         -4.5166681117        0.3082904737       -0.1111195771
 C         -4.1353975479        1.1687955998       -1.0720711491
 C         -4.8906179088        2.3905454807       -1.5196463091
 C         -4.6383332651        3.6315886602       -0.6524761954
 C         -5.2852930653        3.5991893880        0.7327474901
 H         -5.2143241085        4.6085329508        1.1429067452
 H         -6.3450028953        3.3626725427        0.6322537749
 C         -4.6282673854        2.6203261180        1.7161314084
 H         -3.6370169111        2.3435196568        1.3490878941
 H         -4.4845093984        3.1137870156        2.6799814817
 C         -5.4322794826        1.3462545246        1.9762002445
 H         -6.3731763816        1.6007035987        2.4691251639
 H         -4.8568124476        0.7116307616        2.6550464741
 C         -5.7467342951        0.5289330974        0.7162817177
 H         -6.1190326374       -0.4504081285        1.0265258394
 H         -6.5173157827        1.0260692989        0.1274781709
 H         -3.5599086329        3.7711792011       -0.5476462913
 H         -5.0341240211        4.4934365777       -1.1946262995
 H         -4.5570048473        2.6070907727       -2.5367449939
 H         -5.9586295639        2.1724452968       -1.5430139435
 O         -2.9888594433        1.0048833849       -1.7806913157
 C         -2.1193126075       -0.0466013448       -1.5264531242
 O         -1.0985381278       -0.0235912693       -2.2440361208
 H          0.6107465468       -0.7315673170       -0.9264686491
 C          0.6312675202       -1.0061353939        0.1178841020
 C         -0.4255849574       -1.7312959961        0.6496970309
 C         -0.3966172693       -2.0494500458        2.0026854174
 C          0.6634697396       -1.6512670315        2.7983301419
 C          1.7126726664       -0.9237670677        2.2653475263
 C          1.6911261512       -0.5979350028        0.9154673220
 N          2.7380254890        0.1736442186        0.3590368136
 S          4.2826706881       -0.5100713190        0.3484693452
 O          4.3728374166       -1.5333373031       -0.6726819851
 O          4.6177373846       -0.9206500157        1.6875581804
 C          5.2615474165        0.9031929820       -0.1168966375
 C          5.4788206167        1.8875621885        0.8278811560
 C          6.2183144553        3.0041884894        0.4732654584
 C          6.7244406731        3.1176454339       -0.8133386100
 C          6.4976368875        2.1213500018       -1.7504172416
 C          5.7573292815        1.0022723551       -1.4019877942
 H          5.5608438313        0.2008763925       -2.0961652656
 H          6.8933352024        2.2112109252       -2.7493318126
 H          7.3008914850        3.9872719416       -1.0869303589
 H          6.3979644954        3.7810107796        1.1989449179
 H          5.0724732563        1.7541114592        1.8166639323
 H          2.5133442417        0.4397770215       -0.5921044415
 H          2.5486248967       -0.6200611658        2.8731219111
 H          0.6719775813       -1.9074097402        3.8470970330
 H         -1.2196456136       -2.6045364702        2.4298194054
 C         -1.5845756351       -2.1640537182       -0.2171907756
 H         -2.2165491057       -2.8324496674        0.3831213106
 C         -1.1113440546       -2.9237535430       -1.4407242024
 C         -0.5758890004       -4.3124460358       -1.2674468210
 C         -1.9020885498       -4.0973365789       -1.9314786485
 H         -1.9788625135       -4.2564741918       -2.9965817350
 H         -2.7946857488       -4.3635283905       -1.3844799291
 H         -0.5686240617       -4.7227845133       -0.2688354800
 H          0.2629139335       -4.6200178830       -1.8730960945
 H         -0.6448020208       -2.2963139109       -2.1889270042
 O         -4.0371530185       -1.6863345495        1.0687230178
