  62
        -98.93656274
 C         -2.3707822100       -0.4368671306        0.0435416199
 C         -3.4748074702       -0.4303521504        0.9270463496
 C         -4.4898006604        0.6105857293        0.6967505889
 C         -4.3149478303        1.4905334289       -0.3043063815
 C         -5.1918478305        2.6553834585       -0.6905933923
 C         -6.7096573604        2.4258514482       -0.7058751226
 C         -7.1491466900        1.0069449079       -1.0954602220
 H         -7.9010837298        1.0726580674       -1.8840807622
 H         -6.3020260098        0.4497420479       -1.4991491215
 C         -7.7614678802        0.2295681784        0.0722897382
 H         -8.3695726099       -0.5850149120       -0.3285727515
 H         -8.4296940004        0.8947750585        0.6235663177
 C         -6.7595088103       -0.3909884610        1.0451592088
 H         -6.2395303300       -1.2223283511        0.5613054693
 H         -7.3203627304       -0.8099557007        1.8841627588
 C         -5.6913692406        0.5676096395        1.5964961086
 H         -6.1024520409        1.5593518895        1.7684045980
 H         -5.3399015408        0.1654071300        2.5506370789
 H         -7.1293395704        3.1434077178       -1.4129149130
 H         -7.1252176607        2.6695126386        0.2709266272
 H         -4.8551605003        2.9439956181       -1.6891218523
 H         -4.9630442608        3.4892566789       -0.0206245326
 O         -3.2288098201        1.4518965187       -1.1274802212
 C         -2.2378632399        0.4938981790       -0.9852013905
 O         -1.3173356098        0.5777787988       -1.8198398003
 O         -3.6015831103       -1.2503020699        1.8759405800
 C         -1.2931996998       -1.4907489803        0.2200732307
 C          0.0428050900       -0.8302374899        0.4528171207
 C          0.1561312695        0.1059922006        1.4779953803
 C          1.3579844793        0.7377008610        1.7292965803
 C          2.4766647796        0.4515701309        0.9653633707
 C          2.3797369900       -0.4892067796       -0.0492663889
 C          1.1694741102       -1.1276856900       -0.2959610289
 H          1.1123583206       -1.8546388704       -1.0911186786
 N          3.5048327103       -0.7801471498       -0.8352645685
 S          4.9898913301       -1.0238114391       -0.0991327880
 O          5.7412111005       -1.8355594394       -1.0315044174
 O          4.8395411099       -1.5543382985        1.2358819822
 C          5.7124356698        0.6022013910       -0.0351124786
 C          5.8174818799        1.3145505405       -1.2136256589
 C          6.3874435397        2.5771190906       -1.1837997294
 C          6.8428945393        3.1020810613        0.0165299705
 C          6.7335458891        2.3729459718        1.1906064808
 C          6.1635137494        1.1095039517        1.1675451313
 H          6.0539702593        0.5086544621        2.0564747915
 H          7.0889048088        2.7827261624        2.1224512007
 H          7.2856294691        4.0854287314        0.0366951901
 H          6.4738249998        3.1472881502       -2.0947808196
 H          5.4543653503        0.8711022500       -2.1257587988
 H          3.3369768106       -1.4568522302       -1.5649944082
 H          3.4160965694        0.9451243912        1.1528361107
 H          1.4267367090        1.4639491414        2.5250891399
 H         -0.7175571907        0.3333417708        2.0737957399
 H         -1.5660111200       -2.0371431899        1.1352783209
 C         -1.3097022094       -2.4576283408       -0.9450315389
 C         -0.8082634591       -3.8593963206       -0.7706146081
 C         -2.2766657391       -3.6017073510       -0.9223277686
 H         -2.7591483388       -3.8881702815       -1.8448165986
 H         -2.9072676893       -3.7004348007       -0.0508810487
 H         -0.2838839488       -4.3271361609       -1.5906350477
 H         -0.4400141593       -4.1408668801        0.2044989721
 H         -1.1408412692       -1.9663036412       -1.8971207291
