  62
        -98.95134175
 C         -2.3350815392       -0.1517346017        0.1115990404
 C         -1.6115416500        0.4334654996       -0.9540603794
 C         -1.5027951612        1.8967554896       -0.9266936386
 C         -1.9979797615        2.5807602886        0.1206839920
 C         -1.9754806627        4.0751101385        0.2954819929
 C         -0.6488629630        4.6179058893        0.8436577029
 C          0.5021664467        4.6575562309       -0.1619399373
 H          0.1682986361        5.1507315511       -1.0759732070
 H          1.2870437563        5.2771198712        0.2766300629
 C          1.0966183678        3.2839511416       -0.5025310083
 H          2.1881613777        3.3496661225       -0.4950332685
 H          0.8242850285        2.5604181309        0.2698445913
 C          0.6897146979        2.7357456421       -1.8694791386
 H          1.0782731472        3.3891190829       -2.6545214082
 H          1.1529318087        1.7542173325       -1.9872303893
 C         -0.8224750020        2.5818609209       -2.0751717383
 H         -1.2760802429        3.5592132806       -2.2428627676
 H         -0.9822649717        1.9659921013       -2.9640216786
 H         -0.8329272638        5.6363769789        1.1944007636
 H         -0.3536950823        4.0154031690        1.7064775925
 H         -2.2040116834        4.5605103589       -0.6541455168
 H         -2.7675618828        4.3149224974        1.0083216232
 O         -2.6195443608        1.9730995074        1.1663759118
 C         -2.8080596796        0.6017415773        1.1847193410
 O         -3.4087334190        0.1770122561        2.1948052708
 O         -1.0943851096       -0.2305122694       -1.8909670100
 C         -2.5506374380       -1.6549210419        0.1514301295
 C         -1.2178210974       -2.3616166108        0.2051768688
 C         -0.9063169866       -3.4836855101       -0.5525318120
 C          0.3467334939       -4.0653808191       -0.4596331626
 C          1.3191842337       -3.5295288988        0.3652851375
 C          1.0139607029       -2.4110805895        1.1322830082
 C         -0.2546429576       -1.8585492705        1.0700665289
 H         -0.4814169582       -0.9939404711        1.6767560294
 N          1.9739456726       -1.8012335792        1.9671168684
 S          2.3791629012       -0.2122800387        1.6135189192
 O          3.4457629511        0.1156935017        2.5350833092
 O          1.2064420405        0.6205198203        1.6742263100
 C          3.0369551109       -0.2892110671       -0.0434373410
 C          2.1802984108       -0.4899284072       -1.1075822909
 C          2.7178725906       -0.6317815059       -2.3785372611
 C          4.0896387305       -0.5691480547       -2.5648318814
 C          4.9361830106       -0.3651070946       -1.4851963515
 C          4.4075273408       -0.2310572558       -0.2119363412
 H          5.0252454308       -0.0743620759        0.6576187187
 H          6.0032046705       -0.3143972336       -1.6307247017
 H          4.4993153904       -0.6793583037       -3.5564573915
 H          2.0485595005       -0.7879888460       -3.2096590910
 H          1.1137826108       -0.5275010182       -0.9494178307
 H          2.8215964931       -2.3419727386        2.0747822278
 H          2.3045337940       -3.9675821780        0.4164875070
 H          0.5751488245       -4.9372762685       -1.0531656632
 H         -1.6432403864       -3.8998012003       -1.2196438221
 H         -3.0805777276       -1.8588812229        1.0938760795
 C         -3.4218826779       -2.0937781819       -1.0072235905
 C         -4.3197116068       -3.2854503328       -0.8692647611
 C         -4.9048169480       -1.9064942132       -0.9062947701
 H         -5.4470467685       -1.5966814231       -1.7869143098
 H         -5.2887846381       -1.4859707941        0.0121921403
 H         -4.4657108865       -3.9240614123       -1.7273567414
 H         -4.3172636162       -3.8073780933        0.0757814186
 H         -2.9594160382       -1.9068496309       -1.9693159205
