  62
        -98.93026112
 C         -2.3307381676       -0.5845220025        0.3584684747
 C         -2.9668958295        0.6760209373        0.4920749643
 C         -4.2474734507        0.8487115061       -0.2073180585
 C         -4.7285321125       -0.1689866575       -0.9439513253
 C         -6.0558077048       -0.1878473770       -1.6473284800
 C         -7.1853441712       -0.4436100742       -0.6290249057
 C         -8.1519421595        0.7275228713       -0.4514848070
 H         -8.8231953633        0.7671065483       -1.3119036469
 H         -8.7600680455        0.5185908415        0.4312834555
 C         -7.5074980713        2.1085182468       -0.2973776088
 H         -8.2826361415        2.7806959629        0.0768312117
 H         -7.2135569310        2.4879904370       -1.2770785544
 C         -6.2961809731        2.1837541070        0.6411874679
 H         -6.3589115789        3.1182901916        1.2025449543
 H         -6.3232538789        1.3738394588        1.3706417823
 C         -4.9310170388        2.1811663947       -0.0722463306
 H         -5.0335355629        2.6415226412       -1.0588174048
 H         -4.2337183685        2.7951742755        0.5054354148
 H         -6.7298388730       -0.6899439330        0.3325410606
 H         -7.7610860155       -1.3180590648       -0.9359832533
 H         -6.2120298091        0.7563105974       -2.1641931104
 H         -6.0210731404       -0.9894868556       -2.3851943146
 O         -4.0802651742       -1.3534483376       -1.0704738256
 C         -2.8706288557       -1.6012000460       -0.4306981211
 O         -2.4125832778       -2.7347184394       -0.6553058710
 H          0.9842352903        0.9065617009        1.7338704419
 C          1.1255438237        0.4497411198        0.7628585901
 C          0.1680084158       -0.4283393780        0.2760239610
 C          0.3602921818       -0.9916145012       -0.9816488670
 C          1.4899180733       -0.6892912181       -1.7207763876
 C          2.4489977835        0.1767223106       -1.2234550221
 C          2.2606632677        0.7519640343        0.0249469469
 N          3.2583251854        1.6165562523        0.5402679274
 S          4.5909218843        0.7881387986        1.1624329703
 O          4.1813622395       -0.4438567711        1.7995924269
 O          5.2849433877        1.7405076329        2.0006834025
 C          5.5662483174        0.4343100196       -0.2812732379
 C          5.6532395478       -0.8631066245       -0.7460317943
 C          6.4044097717       -1.1167162420       -1.8831049130
 C          7.0505397093       -0.0743973954       -2.5304203084
 C          6.9548183722        1.2229094619       -2.0485753841
 C          6.2053493182        1.4836116769       -0.9126308063
 H          6.1083198530        2.4739439843       -0.4998803150
 H          7.4601537248        2.0298213241       -2.5543836960
 H          7.6333013087       -0.2748559435       -3.4156461559
 H          6.4801949639       -2.1242355925       -2.2594550567
 H          5.1310196760       -1.6406214673       -0.2119428415
 H          2.9034963805        2.2348088599        1.2579358577
 H          3.3289028842        0.4183112925       -1.7970682632
 H          1.6261800237       -1.1354964218       -2.6940446116
 H         -0.3826523301       -1.6735165672       -1.3674230196
 C         -1.0314393171       -0.7684898290        1.1214407650
 H         -1.0803308064       -0.0214636725        1.9304155720
 C         -0.9086177279       -2.1323449763        1.7873440160
 C          0.0042908266       -3.2191344636        1.3153098072
 C          0.3197864074       -2.4778037435        2.5775730488
 H          0.2015356857       -2.9852524806        3.5231545666
 H          1.1476278634       -1.7831120110        2.5520761805
 H          0.6203350534       -3.0323378895        0.4505736298
 H         -0.3554670583       -4.2344819838        1.3797744427
 H         -1.8572793940       -2.4574328567        2.2038912359
 O         -2.4824665639        1.6162519838        1.1801260326
