  62
        -98.94478207
 C          1.8484998266        0.7168010523        0.4108805004
 C          2.4646953132        0.1362044337       -0.7242486332
 C          3.5334235568       -0.8308438585       -0.4407512077
 C          3.8294414630       -1.1498190962        0.8321892907
 C          4.8778513848       -2.1322565279        1.2790302280
 C          6.2928430842       -1.5422675511        1.3542116878
 C          6.9592977864       -1.2753815866        0.0039996300
 H          8.0139676423       -1.0742270066        0.2021649367
 H          6.9096256472       -2.1761371431       -0.6086180324
 C          6.3681254596       -0.0896741098       -0.7713340440
 H          5.7816386481        0.5335982193       -0.0924143525
 H          7.1784042685        0.5327401044       -1.1575320189
 C          5.4929804370       -0.4832111984       -1.9614906769
 H          5.0985714676        0.4301668188       -2.4138575240
 H          6.1013654861       -0.9942879022       -2.7109415179
 C          4.3043525765       -1.3840175105       -1.6009110052
 H          3.6287027113       -1.4225127269       -2.4591008461
 H          4.6500428160       -2.3944250930       -1.3829969033
 H          6.2544787603       -0.6154877977        1.9313515514
 H          6.9123549885       -2.2523119274        1.9069638634
 H          4.5889978037       -2.4621511356        2.2794097921
 H          4.8773430923       -2.9971169268        0.6148979136
 O          3.1699037829       -0.6134754892        1.8941332395
 C          2.1805821768        0.3400981481        1.7114450208
 O          1.6685086348        0.7587598939        2.7706229930
 O          2.1424995939        0.4068677573       -1.9094033111
 C          0.7609627476        1.7609245490        0.2317521185
 C         -0.4080120637        1.1652298518       -0.5155615786
 C         -1.0262374047        1.7841070725       -1.5933759437
 C         -2.0937077566        1.1764238331       -2.2329778973
 C         -2.5733459970       -0.0482120041       -1.8083212989
 C         -1.9753711188       -0.6658076446       -0.7162804959
 C         -0.9079404456       -0.0553190799       -0.0768634140
 H         -0.4411520124       -0.5396195673        0.7725603321
 N         -2.4675541058       -1.9009261470       -0.2620310898
 S         -4.1256909005       -2.0878475939       -0.1373771548
 O         -4.3181837334       -3.0780630869        0.8989410787
 O         -4.6754738194       -2.4161910049       -1.4291181479
 C         -4.7388406919       -0.4979412530        0.3919398056
 C         -5.6206684065        0.2030572833       -0.4050299545
 C         -6.0567107804        1.4499849271        0.0138532903
 C         -5.6021555688        1.9730897014        1.2141724736
 C         -4.7187699070        1.2548195758        2.0058073608
 C         -4.2812459643        0.0070465768        1.5929913231
 H         -3.5974723684       -0.5772439346        2.1882634403
 H         -4.3652128716        1.6623901251        2.9394398083
 H         -5.9375915833        2.9458651147        1.5372497831
 H         -6.7449057937        2.0099788308       -0.5983874706
 H         -5.9461191464       -0.2398090085       -1.3321540283
 H         -1.9940399287       -2.2573887906        0.5544706357
 H         -3.3907389234       -0.5420917450       -2.3080351814
 H         -2.5561102620        1.6624358714       -3.0782624478
 H         -0.6662432912        2.7378422257       -1.9415515950
 H          0.4180373886        2.0180369129        1.2447190924
 C          1.3317235056        3.0029216044       -0.4200196518
 C          0.7277060647        4.3461941847       -0.1450048752
 C          2.0645923182        3.9932814950        0.4324942396
 H          2.9458109227        4.4692292249        0.0290719027
 H          2.1284809639        3.7850899512        1.4909724752
 H          0.6929664127        5.0697516433       -0.9453934330
 H         -0.1174662829        4.3869632732        0.5251041070
 H          1.7257102565        2.8089648291       -1.4108491390
