  62
        -98.93686468
 C         -2.4107518614       -1.0642591679       -0.2197959834
 C         -2.5066281463        0.1597417637        0.4875103451
 C         -3.8682022315        0.5713727214        0.8618641032
 C         -4.9142562803       -0.2273368033        0.5871792259
 C         -6.3546997130        0.0468364717        0.9243810652
 C         -7.0768320034        0.9320700355       -0.1006171323
 C         -6.6736525281        2.4070617679       -0.0847457510
 H         -7.4041492113        2.9452291074       -0.6919728608
 H         -6.7487483649        2.7921248408        0.9326151855
 C         -5.2699961984        2.6864115945       -0.6401424567
 H         -4.9292857341        1.8262510515       -1.2213880813
 H         -5.3111923078        3.5367305289       -1.3246116741
 C         -4.2206838549        3.0117882270        0.4231056321
 H         -4.4832756951        3.9468836430        0.9227518012
 H         -3.2593433325        3.1568100662       -0.0769939458
 C         -4.0415277723        1.9220078964        1.4883927520
 H         -3.1342680669        2.1420380619        2.0564443220
 H         -4.8912585027        1.9197335574        2.1706063146
 H         -8.1467700889        0.8677366110        0.1101049127
 H         -6.9093958292        0.5193070082       -1.0981878570
 H         -6.4193571131        0.5041101303        1.9120190137
 H         -6.8558597587       -0.9229896841        0.9557241207
 O         -4.7708055455       -1.4302938207       -0.0310790566
 C         -3.5288269165       -1.8672110445       -0.4608054529
 O         -3.5474877212       -2.9800895161       -1.0242638966
 O         -1.5231165623        0.8790191737        0.7990991815
 C         -1.0780326940       -1.6010788854       -0.7104690141
 C         -0.0257055488       -1.4709572238        0.3630054870
 C         -0.2219641544       -2.1334509639        1.5727096362
 C          0.7199501172       -2.0603811588        2.5797171594
 C          1.8904024719       -1.3453162278        2.3943563226
 C          2.0934317737       -0.6773381450        1.1934654100
 C          1.1369640936       -0.7388434345        0.1894118573
 H          1.3143851367       -0.1917939907       -0.7213168585
 N          3.2589167747        0.0760969189        0.9791016576
 S          3.9190156722        0.0990230237       -0.5736098808
 O          3.2847637558        1.1387408525       -1.3440972583
 O          3.8849145757       -1.2287751159       -1.1456025926
 C          5.6001644949        0.5674093989       -0.2039368930
 C          5.8907348731        1.9044428485       -0.0078043647
 C          7.1895782113        2.2676313265        0.3109496182
 C          8.1704820501        1.2939718714        0.4287320581
 C          7.8643431379       -0.0434570814        0.2270158155
 C          6.5671076355       -0.4137635668       -0.0911017346
 H          6.2844001238       -1.4395507654       -0.2651567602
 H          8.6296681004       -0.7975646525        0.3157337527
 H          9.1806217690        1.5797529092        0.6761869505
 H          7.4319824221        3.3066832473        0.4653118876
 H          5.0977138229        2.6256839207       -0.1184756303
 H          3.9640146624       -0.0759868449        1.6870362268
 H          2.6321040164       -1.2943188694        3.1771143035
 H          0.5487524521       -2.5743080973        3.5138522041
 H         -1.1323797629       -2.7015742750        1.7126057410
 H         -1.2482564570       -2.6784854693       -0.8775565484
 C         -0.6345113797       -1.0222035410       -2.0459810991
 C         -1.6332482340       -0.5788330776       -3.0716467633
 C         -0.7764983081        0.4323452894       -2.3739897849
 H          0.0196281876        0.9100913289       -2.9271555899
 H         -1.2287926485        1.0691155347       -1.6302965594
 H         -1.4334610152       -0.7981079760       -4.1097110485
 H         -2.6792737366       -0.6341510980       -2.8063756386
 H          0.2549043076       -1.5186331097       -2.4253339838
