  62
        -98.94431488
 C         -1.0261286203       -1.8151654801       -0.7128635599
 C         -2.2200878104       -1.8053739296        0.0545905000
 C         -3.2516606702       -0.8464311097       -0.3485275705
 C         -3.0413318001       -0.0563154202       -1.4161482109
 C         -3.9744792400        1.0040837296       -1.9327477314
 C         -3.8278356499        2.3451554500       -1.1998578321
 C         -4.4190534799        2.3801565807        0.2102256379
 H         -4.4671732199        3.4290778309        0.5098726674
 H         -5.4409059000        1.9986263308        0.1876948880
 C         -3.5993960501        1.6103115812        1.2555935383
 H         -2.5860991101        1.4510789509        0.8765773384
 H         -3.5015793401        2.2187272416        2.1583372580
 C         -4.2036725302        0.2704129714        1.6787212289
 H         -3.5124917103       -0.2085780783        2.3772728692
 H         -5.1465767403        0.4456522318        2.2024690488
 C         -4.4613301003       -0.7069572791        0.5246233594
 H         -4.6791027604       -1.6892653789        0.9514974999
 H         -5.3198993902       -0.3805957593       -0.0618950908
 H         -2.7664057799        2.6033086399       -1.1486824021
 H         -4.3296432598        3.1062294597       -1.8025752525
 H         -3.7257994799        1.1558672391       -2.9853779015
 H         -5.0062542500        0.6579911698       -1.8641651513
 O         -1.9201053501       -0.1451750207       -2.1728840607
 C         -0.8591736202       -0.9774509606       -1.8160404603
 O          0.1192951799       -0.8722556511       -2.5764404203
 O         -2.4048844905       -2.5649651691        1.0440385104
 C          0.0966257596       -2.6739590399       -0.1554052594
 C          0.6806492996       -1.9748230394        1.0499406903
 C          1.0607094294       -2.6717112089        2.1903396807
 C          1.5713092894       -1.9954250984        3.2849519703
 C          1.7013481896       -0.6183393084        3.2698802197
 C          1.3098055997        0.0896860711        2.1378598593
 C          0.8243446097       -0.5954306194        1.0348487496
 H          0.5120733598       -0.0406619398        0.1644351093
 N          1.3739634699        1.4838079611        2.1028961086
 S          1.2705578700        2.3697506504        0.6991661882
 O          1.6476985701        3.7059852706        1.1118679876
 O         -0.0383432100        2.2428310102        0.1084728282
 C          2.5315941100        1.7150146097       -0.3774059314
 C          3.8125319000        1.5905785099        0.1260329387
 C          4.8113606700        1.0962448594       -0.6957354110
 C          4.5158065500        0.7397085487       -2.0032612908
 C          3.2280865000        0.8774347386       -2.4951347410
 C          2.2240383201        1.3702648991       -1.6763635713
 H          1.2081283901        1.4628317191       -2.0262548614
 H          2.9854919201        0.5925102782       -3.5060048408
 H          5.2928343200        0.3504218884       -2.6419864706
 H          5.8143307099        0.9873979194       -0.3157484809
 H          4.0106497499        1.8842327803        1.1438855486
 H          1.8491206199        1.9464421714        2.8607290584
 H          2.0808831996       -0.0911550680        4.1312693694
 H          1.8619724593       -2.5460829180        4.1666093106
 H          0.9299491093       -3.7430156288        2.2269436812
 H         -0.3843993006       -3.5979235797        0.2054017110
 C          1.1578545196       -3.0711143805       -1.1676851091
 C          2.4865261397       -2.3885078707       -1.2578465794
 C          2.4012172395       -3.7870884904       -0.7291855987
 H          2.7697175394       -4.5945622708       -1.3432628283
 H          2.5534474094       -3.9294931699        0.3294382513
 H          2.8967694397       -2.2209662912       -2.2410882295
 H          2.6927463997       -1.5877875804       -0.5637982098
 H          0.7188244696       -3.3892816309       -2.1067174090
