  62
        -98.93749894
 C         -1.2326609246       -1.3107719132        0.2268408029
 C         -2.1562484444       -0.8506172128        1.1954519172
 C         -2.8759957543        0.3993990884        0.8921941357
 C         -2.5939522505        1.0603861362       -0.2457677071
 C         -3.1354787105        2.3588486014       -0.8067207447
 C         -4.3779755833        3.0119144011       -0.2071178519
 C         -5.6783080473        2.2416058108       -0.4365459163
 H         -5.9350634651        2.3027643372       -1.4971585688
 H         -6.4734849995        2.7355915085        0.1260885246
 C         -5.6457497714        0.7631785580       -0.0572628090
 H         -4.9118734759        0.2419330905       -0.6753705544
 H         -6.6245761217        0.3359131453       -0.2917512420
 C         -5.3531726773        0.4716869206        1.4131633663
 H         -5.5087429788       -0.5986979350        1.5749116498
 H         -6.0638674018        1.0097589781        2.0435855263
 C         -3.9278104947        0.8088837849        1.8827514467
 H         -3.7292372165        0.2375222859        2.7945219092
 H         -3.8338208803        1.8628858674        2.1330350308
 H         -4.4837670833        3.9857160653       -0.6930195621
 H         -4.2294029270        3.2044710915        0.8513532214
 H         -3.3094203355        2.1736619901       -1.8713957408
 H         -2.3079742158        3.0733760924       -0.7483823657
 O         -1.6439852492        0.6139115681       -1.1164320128
 C         -0.9442232279       -0.5667586209       -0.9179257915
 O         -0.1206876677       -0.8194290227       -1.8133012501
 O         -2.3661724694       -1.4541648250        2.2827191717
 C         -0.4800042831       -2.5974242655        0.5164272429
 C          0.9931418440       -2.3749831805        0.2873744942
 C          1.7494367001       -3.0740980737       -0.6425946553
 C          3.0887013827       -2.7733971805       -0.8249695292
 C          3.7017441382       -1.7782885902       -0.0864695898
 C          2.9535662547       -1.0754433071        0.8494520453
 C          1.6151289374       -1.3802293234        1.0331368655
 H          1.0316793662       -0.8244195803        1.7577899388
 N          3.5654601211       -0.0506365882        1.6048538871
 S          4.1518482259        1.2626849626        0.7454451386
 O          5.2711216984        0.8354326238       -0.0541245097
 O          4.4269259970        2.2748616170        1.7406982673
 C          2.8084161115        1.7859015064       -0.3025528377
 C          2.6738001828        1.2368199144       -1.5613308345
 C          1.6022418507        1.6244863735       -2.3489622020
 C          0.6888354889        2.5480452293       -1.8662360353
 C          0.8352752865        3.0861341796       -0.5970297973
 C          1.9018017974        2.6992725816        0.1971931616
 H          2.0558896039        3.1008430897        1.1863537285
 H          0.1230153245        3.8042857116       -0.2213972322
 H         -0.1463697477        2.8412129074       -2.4825240671
 H          1.4746315479        1.1937330290       -3.3282084835
 H          3.4035981834        0.5219862587       -1.9043671484
 H          2.9791036552        0.2860232639        2.3560820224
 H          4.7381949465       -1.5195182091       -0.2312971388
 H          3.6626245418       -3.3190655131       -1.5586067330
 H          1.2847949776       -3.8362704377       -1.2459602775
 H         -0.6339157967       -2.7667852074        1.5955674028
 C         -1.0291962966       -3.8247387372       -0.1939817347
 C         -2.4796157937       -3.9145796008       -0.5608974580
 C         -1.4408809625       -3.8056499120       -1.6344462777
 H         -1.2355411319       -4.6792203075       -2.2359899747
 H         -1.3454713356       -2.8745836719       -2.1699560223
 H         -2.9868041250       -4.8580723962       -0.4252083309
 H         -3.1000102008       -3.0531652631       -0.3599620065
 H         -0.5696039703       -4.7394482500        0.1682271112
