  62
        -98.93830576
 C         -2.3940562572       -1.2379238898       -0.0883256702
 C         -3.2133420178       -0.5436763462        0.8394992158
 C         -3.9412862734        0.6324827408        0.3392157642
 C         -3.8026339478        0.9901467161       -0.9485177700
 C         -4.4694426602        2.1218140681       -1.6898831000
 C         -4.5815245789        3.4719111246       -0.9698230017
 C         -3.4096723070        3.8078720957       -0.0357147090
 H         -2.5860201127        3.1093674604       -0.1981179421
 H         -3.0378827247        4.8055048046       -0.2774684711
 C         -3.8038193199        3.7993089989        1.4433173705
 H         -3.0681067995        4.3806050500        2.0042374496
 H         -4.7684904117        4.2999890510        1.5511023025
 C         -3.8803118331        2.4187845748        2.0939927596
 H         -2.8746147347        1.9994483406        2.1884493577
 H         -4.2711468543        2.5455892813        3.1063669828
 C         -4.7486224978        1.3860063816        1.3566800981
 H         -5.0807520563        0.6435560774        2.0872120201
 H         -5.6241581768        1.8519678153        0.9115972723
 H         -4.6591791485        4.2359099244       -1.7452761391
 H         -5.5097010853        3.5063580221       -0.4012530069
 H         -3.8853306657        2.2433778771       -2.6055249794
 H         -5.4688705909        1.7907506594       -1.9872454117
 O         -3.0079456198        0.2943215314       -1.8084575776
 C         -2.2743223894       -0.8116289121       -1.4096543705
 O         -1.5860896850       -1.3030354539       -2.3283709306
 O         -3.3420811774       -0.9032933969        2.0394593348
 C         -1.6141643572       -2.4291347267        0.4472323692
 C         -0.1997253438       -1.9916693906        0.7428866025
 C          0.2213497927       -1.7864024623        2.0519354965
 C          1.4949512651       -1.3148455805        2.3176584368
 C          2.3690257608       -1.0271233993        1.2844738153
 C          1.9527738537       -1.2181695122       -0.0262851005
 C          0.6854335708       -1.7135185602       -0.2895130887
 H          0.3630526515       -1.8356540501       -1.3129721379
 N          2.8249945862       -0.8814125235       -1.0858769628
 S          3.1892430953        0.7610491607       -1.1898655314
 O          2.1187804142        1.5741426724       -0.6562466229
 O          3.5487491494        0.9935991509       -2.5719422298
 C          4.6447982440        0.9274679134       -0.1771443296
 C          5.7699944791        0.2093816369       -0.5328885048
 C          6.9100620003        0.3233871632        0.2464549547
 C          6.9065685684        1.1506071686        1.3599597783
 C          5.7702670165        1.8681583876        1.7010095373
 C          4.6258072908        1.7575945469        0.9263453704
 H          3.7164211503        2.2899957661        1.1552026629
 H          5.7691414374        2.5112244593        2.5664201433
 H          7.7947664533        1.2368170827        1.9657220095
 H          7.7958455160       -0.2322668410       -0.0157712982
 H          5.7298733298       -0.4171999631       -1.4081072643
 H          2.4755474758       -1.1932181006       -1.9824394060
 H          3.3587918729       -0.6490959758        1.4825764919
 H          1.8078034215       -1.1623065158        3.3392748943
 H         -0.4687246980       -1.9780170726        2.8608642141
 H         -2.0946462872       -2.6795675607        1.4024063417
 C         -1.6675963333       -3.6469968986       -0.4514777445
 C         -1.3338675838       -4.9883595482        0.1273560161
 C         -2.7489344453       -4.6627466102       -0.2427152645
 H         -3.1806289844       -5.1388013357       -1.1102865486
 H         -3.4567213022       -4.4830094606        0.5532479537
 H         -0.7908532552       -5.6920537761       -0.4845073305
 H         -1.0818855872       -5.0298075281        1.1761132651
 H         -1.3686721354       -3.4488633224       -1.4723851146
