  62
        -98.93967071
 C         -2.0638610609       -1.3778511607        0.6405046799
 C         -1.9653341709       -0.0993112812        1.2487938209
 C         -3.0321164109        0.8584271491        0.9370737718
 C         -4.0342907110        0.4780454497        0.1242395316
 C         -5.1555399810        1.3667147901       -0.3289268076
 C         -4.8045818011        2.0684421612       -1.6486101470
 C         -3.4278205411        2.7333951812       -1.6477216966
 H         -2.6590031911        1.9605162711       -1.5744164573
 H         -3.3028122212        3.2203733320       -2.6173429562
 C         -3.2207439710        3.7623792903       -0.5274783758
 H         -4.1866155110        4.0710084999       -0.1258166154
 H         -2.7487446510        4.6508414406       -0.9521297251
 C         -2.3247485609        3.2832655693        0.6164011437
 H         -1.3951005409        2.8775808696        0.2100130133
 H         -2.0690515208        4.1497372088        1.2318785344
 C         -2.9362589908        2.2282739286        1.5466038129
 H         -2.2755743607        2.1250123578        2.4121825328
 H         -3.9139138508        2.5648013083        1.8974889433
 H         -5.5724618511        2.8157231514       -1.8573117363
 H         -4.8259303012        1.3267667219       -2.4505608076
 H         -6.0442547510        0.7514964503       -0.4796900380
 H         -5.3635322109        2.1041524695        0.4438697231
 O         -4.1075482310       -0.7587950298       -0.4255943094
 C         -3.1134490010       -1.7106533300       -0.2163024703
 O         -3.3037527711       -2.7717295295       -0.8368745612
 H          1.6348950991       -1.7694609315        1.5933595392
 C          1.4820034090       -1.7437448906        0.5232107792
 C          0.2256901990       -2.0236817602        0.0084732791
 C          0.0369073189       -1.9578389891       -1.3686420408
 C          1.0891333488       -1.6323272084       -2.2047930906
 C          2.3438387388       -1.3576864388       -1.6878075805
 C          2.5387762090       -1.4061305700       -0.3139410206
 N          3.8081508890       -1.1273680104        0.2243658695
 S          4.5834541390        0.2928284799       -0.2068597294
 O          4.9440660689        0.2327932211       -1.6003453395
 O          5.6732729791        0.4212500991        0.7325283506
 C          3.3864857990        1.5856644997        0.0638868518
 C          3.2818056292        2.1272372387        1.3296876323
 C          2.3313767792        3.1068715385        1.5639879132
 C          1.4997547891        3.5199667793        0.5348264836
 C          1.6119103490        2.9607203104       -0.7285159369
 C          2.5635532689        1.9829206506       -0.9704308578
 H          2.6860397288        1.5325222014       -1.9416941482
 H          0.9610598989        3.2828088310       -1.5260139166
 H          0.7601119091        4.2831149992        0.7188372343
 H          2.2382574593        3.5417874077        2.5460575135
 H          3.9546518092        1.7862424580        2.1002110119
 H          3.8541567591       -1.2484133213        1.2261091694
 H          3.1712657288       -1.0979787783       -2.3279937404
 H          0.9319466987       -1.5905923375       -3.2722172706
 H         -0.9443296512       -2.1623235587       -1.7721545109
 C         -0.9229247309       -2.3361399710        0.9336465890
 H         -0.5969162008       -2.0824533118        1.9552575691
 C         -1.3162664109       -3.8043171210        0.9389146478
 C         -0.8775392310       -4.7847036101       -0.1027440731
 C         -0.2886924009       -4.8455473512        1.2727753168
 H         -0.5675945809       -5.6604561218        1.9233267162
 H          0.7326918791       -4.5148890914        1.3903979170
 H         -0.2520613811       -4.4336032394       -0.9082617928
 H         -1.5851281611       -5.5424173099       -0.4024354336
 H         -2.3101748809       -3.9555145213        1.3461985078
 O         -1.0221623908        0.2196411081        2.0215615411
