  62
        -98.94312349
 C         -1.8307534729       -0.8486150997        0.7025233798
 C         -2.8105436865       -1.2016461614       -0.2577975873
 C         -4.1424735966       -0.6067305121       -0.0639969029
 C         -4.3625671518        0.2057613807        0.9843796081
 C         -5.6509686321        0.9239510285        1.2605172785
 C         -5.6627367785        2.3135142336        0.6080714639
 C         -5.2473150381        2.3095787956       -0.8632772070
 H         -5.3237355461        3.3374454568       -1.2247328029
 H         -4.1956341823        2.0220879413       -0.9358468850
 C         -6.0880908220        1.3886720767       -1.7586499461
 H         -7.0267183612        1.1439808785       -1.2601195567
 H         -6.3386285010        1.9264906509       -2.6754514928
 C         -5.3846049774        0.0965661185       -2.1778212274
 H         -5.9731199210       -0.3674940836       -2.9736795059
 H         -4.4013823622        0.3330288175       -2.5923201836
 C         -5.2020035712       -0.9513472646       -1.0728610579
 H         -6.1579695738       -1.1372538390       -0.5795309397
 H         -4.8726634341       -1.8800660982       -1.5475345342
 H         -6.6666659170        2.7312219436        0.7037743613
 H         -4.9723775773        2.9590087316        1.1564021257
 H         -6.4809026651        0.3280463844        0.8858135561
 H         -5.7561370646        1.0386977161        2.3407158707
 O         -3.4046463883        0.5047843310        1.8991016045
 C         -2.1229976860       -0.0027042728        1.7765648032
 O         -1.3445103978        0.3578819889        2.6833271864
 O         -2.6089500327       -1.9739633740       -1.2303716998
 C         -0.3959193116       -1.3517913162        0.6313410827
 C          0.3584766438       -0.5848701791       -0.4288890014
 C          0.2224471558       -0.8668130599       -1.7845233787
 C          0.9025259296       -0.1168334602       -2.7262825864
 C          1.7443208170        0.9108744343       -2.3389480778
 C          1.8859434016        1.2025411970       -0.9878405052
 C          1.1913721883        0.4577454793       -0.0446699950
 H          1.2920361166        0.7111531148        1.0006189494
 N          2.7335129968        2.2423119425       -0.5626704130
 S          3.8590032086        1.9166929025        0.6326938488
 O          3.2096852937        1.7770776092        1.9103105813
 O          4.8292060914        2.9837029202        0.5199909804
 C          4.5898430505        0.3700628353        0.1285915041
 C          5.5496207203        0.3949629419       -0.8647011657
 C          6.0730072072       -0.8030541465       -1.3223083926
 C          5.6226463953       -2.0005976196       -0.7876487302
 C          4.6605226284       -2.0089081393        0.2101635744
 C          4.1355714724       -0.8130575987        0.6745917606
 H          3.3895365402       -0.7754545923        1.4521730721
 H          4.3140376548       -2.9416566274        0.6260266764
 H          6.0250756657       -2.9342139969       -1.1474848778
 H          6.8256080114       -0.8001700491       -2.0941423990
 H          5.8787831255        1.3481985497       -1.2455936827
 H          3.1676656006        2.7502565115       -1.3204002538
 H          2.2790407070        1.4919842711       -3.0750517567
 H          0.7812233559       -0.3397207470       -3.7753874458
 H         -0.4467141627       -1.6527713861       -2.0950831639
 H          0.0499981174       -1.0988487860        1.6030116130
 C         -0.3059050679       -2.8522637870        0.4394710874
 C          0.9615527349       -3.5544000630        0.8185911586
 C         -0.2740728839       -3.7386665368        1.6463971158
 H         -0.7910320012       -4.6855557859        1.6033266312
 H         -0.3155422899       -3.2641876987        2.6166644672
 H          1.2985174412       -4.3768394097        0.2069933148
 H          1.7566569386       -2.9517357311        1.2308442289
 H         -0.8488692434       -3.2145486528       -0.4225962035
