  62
        -98.94032215
 C          2.4439555407        1.0176759754        0.0408352168
 C          2.5256683682       -0.3798920933        0.2496506629
 C          3.8614505249       -0.8979911168        0.5815487109
 C          4.8934493364       -0.0412414591        0.6913986226
 C          6.3127125067       -0.4377858067        0.9760071916
 C          7.0924567306       -0.6786623015       -0.3240645421
 C          6.3708478254       -1.5917572553       -1.3151409297
 H          5.4658448916       -1.0914761910       -1.6676136381
 H          7.0262301706       -1.7164174003       -2.1798397383
 C          5.9992213898       -2.9706233234       -0.7520468306
 H          6.2571105721       -3.7318640180       -1.4912976406
 H          6.5869850265       -3.1761812392        0.1432159294
 C          4.5132017901       -3.1465663475       -0.4330269013
 H          3.9143651059       -2.8521982465       -1.2988781896
 H          4.3270564465       -4.2089850509       -0.2540096319
 C          3.9966244825       -2.3799591055        0.7913089776
 H          4.6323415171       -2.5918852743        1.6534516919
 H          2.9878191932       -2.7430248235        1.0098236398
 H          7.2634169022        0.2852217682       -0.8087882732
 H          8.0628741845       -1.1088137811       -0.0700792538
 H          6.7904171251        0.3711754974        1.5311579034
 H          6.3172734051       -1.3379045847        1.5874053254
 O          4.7686620638        1.2982522899        0.5081490020
 C          3.5491079516        1.8588619783        0.1677035515
 O          3.5748323303        3.0972556345        0.0170574249
 O          1.5364467080       -1.1553316438        0.1669140440
 C          1.1177688682        1.6498501904       -0.3362112847
 C          0.0610332146        1.3423389750        0.6974204459
 C          0.3833942657        1.4256449837        2.0493831411
 C         -0.5628932073        1.1539332263        3.0180247616
 C         -1.8520809127        0.8008623621        2.6608128221
 C         -2.1924049743        0.7394051286        1.3147168614
 C         -1.2383300400        1.0124251895        0.3439117819
 H         -1.5252437541        0.9498869595       -0.6918133905
 N         -3.5144930525        0.4486813972        0.9351244289
 S         -3.8391988374       -0.4032694976       -0.4839831859
 O         -3.1514243417       -1.6752394207       -0.4851097124
 O         -3.5998340074        0.4567087387       -1.6149507826
 C         -5.5947616092       -0.6472894587       -0.2831346784
 C         -6.0758734234       -1.8768597413        0.1239641127
 C         -7.4413094427       -2.0368637649        0.3026289260
 C         -8.2969702732       -0.9697497884        0.0750864827
 C         -7.7992306089        0.2585314594       -0.3346847158
 C         -6.4357608797        0.4246134425       -0.5167492410
 H         -6.0043666657        1.3567485526       -0.8420800554
 H         -8.4680784453        1.0850021369       -0.5130481828
 H         -9.3587805425       -1.0966561694        0.2156287327
 H         -7.8314025957       -2.9912853603        0.6176370445
 H         -5.3734306116       -2.6794582768        0.2823995522
 H         -4.0610111645        0.0782710697        1.7012034001
 H         -2.5892111780        0.5808389967        3.4181102958
 H         -0.2933166632        1.2108698508        4.0620904102
 H          1.3925614649        1.6964991327        2.3301579507
 H          1.2874234922        2.7374046802       -0.3350947341
 C          0.7213737373        1.2228177666       -1.7350213869
 C         -0.0639351281        2.1452616840       -2.6162588679
 C          1.3800036008        1.8752774116       -2.9118440928
 H          1.6288538195        1.2658120120       -3.7676820229
 H          2.0985886925        2.6554706383       -2.7052922188
 H         -0.8167697145        1.7200104346       -3.2634296288
 H         -0.3256693200        3.1135111578       -2.2166436305
 H          0.5169649628        0.1591679793       -1.8021086141
