  62
        -98.94489423
 C          1.9072974056        0.1369264906        0.0613792269
 C          2.9132187267        0.9902951924        0.5748089367
 C          4.2301434704        0.3766794047        0.7759799853
 C          4.4071283187       -0.9281474731        0.4990534601
 C          5.6834166740       -1.7046587525        0.6795076984
 C          6.6652825478       -1.5753885040       -0.4930985866
 C          7.3712318762       -0.2234663792       -0.6047752810
 H          7.8249601085        0.0283648950        0.3542688685
 H          8.1814401693       -0.3441272964       -1.3266447770
 C          6.4659593793        0.9269933351       -1.0667998945
 H          6.9758861358        1.5026827310       -1.8425696496
 H          5.5584764265        0.5180731154       -1.5171601581
 C          6.0713371478        1.9061939096        0.0387952775
 H          6.9611873785        2.4217474698        0.4066823413
 H          5.4012913469        2.6552539613       -0.3907030361
 C          5.3550441856        1.2571098367        1.2302690516
 H          4.9271347312        2.0510586913        1.8472106158
 H          6.0643447261        0.6896426736        1.8322092726
 H          7.4261357900       -2.3492065054       -0.3672779162
 H          6.1294059319       -1.7848518858       -1.4218137555
 H          6.1742760002       -1.3938564220        1.6022276286
 H          5.3968573133       -2.7542726701        0.7741819597
 O          3.4073057818       -1.7206696086        0.0282296666
 C          2.1409904796       -1.2088542064       -0.2204237612
 O          1.3330850415       -2.0406353646       -0.6753511953
 O          2.7166037010        2.2020264903        0.8590080679
 C          0.5241024633        0.7092194601       -0.1937798561
 C         -0.5016027113       -0.0594079848        0.6003804577
 C         -0.3183771962       -0.1829494000        1.9764221031
 C         -1.2090211707       -0.9027180378        2.7470105087
 C         -2.3111713352       -1.5051985200        2.1646881802
 C         -2.5084767078       -1.3824821423        0.7955893584
 C         -1.6104043607       -0.6560896586        0.0229339843
 H         -1.7817273831       -0.5950688211       -1.0381482293
 N         -3.6110723632       -1.9953749617        0.1783877264
 S         -4.5285532146       -1.1530557434       -0.9356486448
 O         -5.7609931913       -1.9040883646       -1.0304879457
 O         -3.7963655634       -0.9737896302       -2.1626261864
 C         -4.8323012170        0.4201737100       -0.1530755003
 C         -5.8029838566        0.4842600734        0.8279042666
 C         -6.0052657591        1.6816399099        1.4941125639
 C         -5.2309370639        2.7872627833        1.1757248389
 C         -4.2619113021        2.7066353335        0.1879412922
 C         -4.0573106944        1.5122664048       -0.4850847709
 H         -3.3168480424        1.4118238912       -1.2610578214
 H         -3.6624856944        3.5680229176       -0.0603479038
 H         -5.3847605543        3.7183414955        1.6980429737
 H         -6.7616553189        1.7494333874        2.2593303396
 H         -6.3904455584       -0.3948496033        1.0377440930
 H         -4.2029048167       -2.5173475190        0.8079974591
 H         -3.0045346134       -2.0766044358        2.7628972948
 H         -1.0477398484       -0.9958642657        3.8103848970
 H          0.5449238947        0.2848508248        2.4299022141
 H          0.5614111116        1.7380268692        0.1943590284
 C          0.2420788369        0.7613610459       -1.6798971352
 C         -0.6577043095        1.8203710736       -2.2402120948
 C          0.8188943329        1.8831738430       -2.4885984232
 H          1.1884138033        1.6673185611       -3.4799090090
 H          1.3944259026        2.6294578311       -1.9604977390
 H         -1.3092484023        1.5606929106       -3.0618068631
 H         -1.0765182529        2.5340980915       -1.5467524593
 H          0.2235528352       -0.2210502637       -2.1393763380
