  62
        -98.94397134
 C          2.0712247900        1.3158021498        0.2464790688
 C          2.2101135196        0.5669600496       -0.9472525211
 C          3.0606475897       -0.6308057903       -0.8623493313
 C          3.6436257202       -0.9534723900        0.3059208385
 C          4.4760742005       -2.1793633799        0.5435641784
 C          3.6102910808       -3.3535240199        1.0224608990
 C          2.3641967805       -3.5864887302        0.1684053295
 H          1.7046257304       -2.7207509602        0.2627429097
 H          1.8367554807       -4.4471235602        0.5854947699
 C          2.6498747699       -3.8342790204       -1.3191485805
 H          2.0483846698       -4.6808054705       -1.6570689901
 H          3.6971087098       -4.1058706903       -1.4565778809
 C          2.3107230894       -2.6538073506       -2.2309834406
 H          1.2858110994       -2.3249069807       -2.0389125902
 H          2.3512683090       -3.0010165608       -3.2670170906
 C          3.2393313993       -1.4379356305       -2.1182711712
 H          3.0033383089       -0.7628706307       -2.9461978712
 H          4.2775613993       -1.7586551304       -2.2243273916
 H          3.2911202412       -3.1518720998        2.0475220691
 H          4.2239045409       -4.2559843998        1.0289766989
 H          4.9924533201       -2.4463091700       -0.3764887718
 H          5.2167548108       -1.9484108297        1.3108455681
 O          3.4922461606       -0.2115328599        1.4309111985
 C          2.7132307105        0.9314051201        1.4299495086
 O          2.6722193709        1.5188885102        2.5284775585
 H         -0.3505131808        1.3859683192       -1.4736044902
 C         -0.8973483504        1.6665357693       -0.5857830400
 C         -0.2274379600        2.2945654796        0.4543485196
 C         -0.9417407596        2.6268266597        1.5996318198
 C         -2.2949151195        2.3498097396        1.6925700905
 C         -2.9605900499        1.7272553493        0.6518654008
 C         -2.2501139503        1.3753695292       -0.4888421094
 N         -2.9032968907        0.7083726690       -1.5393847790
 S         -3.9306365604       -0.5470454011       -1.1360922084
 O         -3.8864057408       -1.4577988013       -2.2583691282
 O         -5.2323071003       -0.0170255412       -0.8123930279
 C         -3.2256517097       -1.3100742108        0.3167535715
 C         -1.9186289597       -1.7528260406        0.2654052310
 C         -1.3650910992       -2.3355259504        1.3935379109
 C         -2.1225608087       -2.4674918703        2.5473039612
 C         -3.4346594787       -2.0228100604        2.5815461517
 C         -3.9928845292       -1.4368315206        1.4568740418
 H         -5.0069676293       -1.0718211407        1.4403149722
 H         -4.0214731583       -2.1273481003        3.4797730019
 H         -1.6834424883       -2.9189156501        3.4228954311
 H         -0.3434410591       -2.6804424303        1.3708453005
 H         -1.3494661401       -1.6376587307       -0.6441112493
 H         -2.2882492710        0.4539297589       -2.2987191692
 H         -4.0152121499        1.5095462492        0.7042052513
 H         -2.8375807692        2.6196655197        2.5854753706
 H         -0.4256562793        3.0958568799        2.4245770095
 C          1.2490261199        2.5932872897        0.3460623589
 H          1.5623787902        3.0697726499        1.2841879987
 C          1.5233360393        3.5581582396       -0.7921097613
 C          1.2264086292        5.0132175096       -0.5977498315
 C          2.6470132593        4.5397992597       -0.6637704920
 H          3.2310306389        4.7723358496       -1.5416429123
 H          3.2226276996        4.5235341399        0.2505410078
 H          0.8399602396        5.3213514597        0.3619637386
 H          0.8315618388        5.5739966794       -1.4309979914
 H          1.3455992289        3.1341731594       -1.7714386312
 O          1.6618349891        0.8567955094       -2.0456428409
