  62
        -98.94294770
 C         -2.4921453485       -0.8326301093        0.4987924950
 C         -2.5780557631        0.3407628380       -0.2884269651
 C         -3.7460252216        1.1927075834       -0.0306650361
 C         -4.6279583545        0.8498003516        0.9258016830
 C         -5.8538071204        1.6280585250        1.3205513568
 C         -7.0790174200        1.3520365564        0.4382497836
 C         -7.0153462734        1.9486887778       -0.9682935479
 H         -8.0166355639        1.8675031195       -1.3959703784
 H         -6.7755080261        3.0102548093       -0.9008386443
 C         -6.0200563983        1.2526583286       -1.9071706133
 H         -5.7563135523        0.2745227260       -1.4982437447
 H         -6.4947275691        1.0767433540       -2.8752020090
 C         -4.7368990248        2.0416035268       -2.1684909886
 H         -4.9767220331        2.9660626168       -2.6984755921
 H         -4.0910809530        1.4410623160       -2.8141447735
 C         -3.9440324438        2.3952001111       -0.9033043760
 H         -2.9560379197        2.7513994188       -1.2050869589
 H         -4.4491803974        3.1879304968       -0.3520549589
 H         -7.2237022456        0.2713554315        0.3696338651
 H         -7.9490076076        1.7716643206        0.9486500763
 H         -6.0933935795        1.3319378166        2.3441059522
 H         -5.6297204580        2.6950378543        1.3108641463
 O         -4.4901441604       -0.2719652669        1.6826552683
 C         -3.4355999293       -1.1462850953        1.4767370400
 O         -3.4428243875       -2.1469109026        2.2228400830
 O         -1.7286844750        0.6616708668       -1.1594296645
 C         -1.3406699582       -1.7998587254        0.2916144611
 C         -0.0259346014       -1.0979994750        0.5319214511
 C          0.1549138828       -0.4099150097        1.7292469581
 C          1.3440025452        0.2381148923        2.0001395754
 C          2.3819094567        0.2155881517        1.0842418842
 C          2.2177380250       -0.4765928708       -0.1065402197
 C          1.0214812624       -1.1323990912       -0.3739489431
 H          0.9116548176       -1.6651366876       -1.3056938587
 N          3.2636560612       -0.4995395745       -1.0428545818
 S          4.8151246200       -0.8607714649       -0.5200791883
 O          5.4954840533       -1.3737774266       -1.6892252988
 O          4.7956205181       -1.7214837977        0.6398708706
 C          5.5110851455        0.7221621441       -0.0955666476
 C          6.0668248748        0.9159086886        1.1538087646
 C          6.6194686482        2.1503787685        1.4576784626
 C          6.6074461516        3.1634315232        0.5112949351
 C          6.0467277407        2.9521902445       -0.7396417076
 C          5.4938512473        1.7201553315       -1.0500966740
 H          5.0520147345        1.5158962641       -2.0111039176
 H          6.0385664958        3.7428040019       -1.4726089368
 H          7.0374864186        4.1234065779        0.7498475462
 H          7.0558833545        2.3164674585        2.4295269720
 H          6.0491999124        0.1008827373        1.8598714874
 H          3.0414550950       -0.9897673111       -1.8969498988
 H          3.3106138454        0.7233544742        1.2871247774
 H          1.4653562312        0.7693153052        2.9321064809
 H         -0.6560970593       -0.3907489186        2.4451160165
 H         -1.4529221601       -2.5762604023        1.0626508411
 C         -1.4503513436       -2.4499023765       -1.0719031779
 C         -0.8630454873       -3.8077545862       -1.3104378114
 C         -2.3500545784       -3.6360708855       -1.2368609878
 H         -2.9258488989       -3.7251174502       -2.1458854398
 H         -2.8654166749       -3.9933778725       -0.3570532873
 H         -0.4203845190       -4.0189361230       -2.2725794650
 H         -0.3660463857       -4.2904989360       -0.4822638292
 H         -1.4222324857       -1.7288336596       -1.8810215641
