  62
        -98.93326886
 C         -1.4699516094       -0.7038218912       -0.6345618097
 C         -2.8085206293       -1.0911565614       -0.9017486396
 C         -3.8344300195       -0.6058136510        0.0330329899
 C         -3.4534213797        0.1126319097        1.1041305296
 C         -4.3779219799        0.7394160002        2.1088427091
 C         -5.0031274599        2.0204502398        1.5203582782
 C         -6.5154664899        1.9446976696        1.3099314381
 H         -7.0134286900        2.0434760301        2.2768175080
 H         -6.8042590699        2.8043342092        0.7014254275
 C         -7.0341475197        0.6660159191        0.6447973888
 H         -7.0896705797       -0.1352294505        1.3832648993
 H         -8.0593350497        0.8670367688        0.3266529885
 C         -6.2329043795        0.1647595385       -0.5637685708
 H         -5.6851070595        0.9848250482       -1.0285649112
 H         -6.9394394294       -0.2076752820       -1.3082794307
 C         -5.2600653494       -0.9885179913       -0.2541253800
 H         -5.6523643895       -1.5844354308        0.5747329203
 H         -5.2029112193       -1.6427009118       -1.1292308696
 H         -4.7914298001        2.8640722002        2.1790908778
 H         -4.5125153098        2.2346854493        0.5685357682
 H         -5.1521557099        0.0288811703        2.3899516794
 H         -3.7844725300        0.9763313708        2.9923203290
 O         -2.1566545498        0.4204493000        1.3584359595
 C         -1.1298832196        0.0299463695        0.5033815399
 O         -0.0040802697        0.4034824499        0.8753350698
 O         -3.1321443892       -1.8146767621       -1.8815963292
 C         -0.4002906192       -1.1939923316       -1.5953727393
 C          0.6947107707       -1.9025680211       -0.8406563987
 C          0.4649853808       -3.1997101608       -0.3901488980
 C          1.4410532008       -3.8931015204        0.2986989326
 C          2.6634426107       -3.2994583501        0.5588814724
 C          2.8987256906       -2.0000862603        0.1284122316
 C          1.9202817806       -1.3101747808       -0.5749610789
 H          2.1109241206       -0.2999379810       -0.8971426395
 N          4.1405398705       -1.3756051201        0.3673034414
 S          4.1406178703        0.0065648105        1.3295001806
 O          5.5255219702        0.1444444209        1.7390800207
 O          3.1843915902       -0.0966459889        2.4069179105
 C          3.7541332203        1.3435452098        0.2249991597
 C          2.6786919902        2.1670805299        0.4852290691
 C          2.4462874602        3.2416692293       -0.3598414516
 C          3.2833838503        3.4669171388       -1.4416046516
 C          4.3557326404        2.6229494987       -1.6915515110
 C          4.5995122104        1.5520779792       -0.8477759103
 H          5.4271914205        0.8787110192       -0.9963910798
 H          5.0007794405        2.7992619283       -2.5373120210
 H          3.0958893703        4.3049063584       -2.0948588521
 H          1.6077805201        3.8934345694       -0.1718093621
 H          2.0322105101        1.9355851903        1.3161863292
 H          4.8435369505       -2.0116155198        0.7207054219
 H          3.4303788707       -3.8352083297        1.0988027228
 H          1.2504568008       -4.9003232702        0.6376888431
 H         -0.4939139992       -3.6589314611       -0.5886060278
 H         -0.9212549191       -1.9466307021       -2.2099234889
 C          0.1270629708       -0.1445997022       -2.5617870698
 C         -0.8080124592        0.8520216174       -3.1781430606
 C          0.2502463506        1.3081798080       -2.2211662807
 H          1.0985158606        1.8495357579       -2.6135832409
 H         -0.0440944395        1.6231009086       -1.2330592409
 H         -0.6955041791        1.0880592468       -4.2253718107
 H         -1.8337744893        0.8423684475       -2.8388384007
 H          0.8936099509       -0.5541098425       -3.2126743895
