  62
        -98.94165051
 C         -1.7071616092       -0.4773710898       -0.2694956246
 C         -2.8230179774       -1.2859224918        0.0696559210
 C         -4.1441683338       -0.7660429538       -0.3053292478
 C         -4.2282686070        0.4276750351       -0.9195185060
 C         -5.5103352334        1.1018909649       -1.3120196817
 C         -6.0219226693        2.0186530605       -0.1920489533
 C         -6.0571950814        1.3530066188        1.1836758387
 H         -5.0343789567        1.1358357943        1.5000591381
 H         -6.4626024574        2.0831895142        1.8874390744
 C         -6.8910453902        0.0655714815        1.2452701828
 H         -7.5102398616        0.0923717406        2.1444077624
 H         -7.5654356379        0.0197959573        0.3893905929
 C         -6.0667968866       -1.2215418963        1.3102924274
 H         -6.7397052962       -2.0432669846        1.5693032042
 H         -5.3254651171       -1.1419137064        2.1092786564
 C         -5.3411456429       -1.6156645336        0.0176640983
 H         -4.9605289079       -2.6329079276        0.1482362445
 H         -6.0476851691       -1.6173943724       -0.8149292692
 H         -7.0231624873        2.3624926205       -0.4581199244
 H         -5.3672185018        2.8913254148       -0.1334880936
 H         -6.2562185876        0.3443874729       -1.5452903062
 H         -5.3239332215        1.7023644867       -2.2040945551
 O         -3.1417083075        1.1859189548       -1.2090740343
 C         -1.8551914855        0.7669694625       -0.8843860638
 O         -0.9715396405        1.5868715527       -1.1937525333
 O         -2.7174357291       -2.3917506560        0.6634545270
 C         -0.3317543155       -0.9976135793        0.1091064773
 C          0.4846286002        0.0839420714        0.7677684645
 C          0.0931603346        0.5531066840        2.0194532582
 C          0.8059131702        1.5505244731        2.6551443780
 C          1.9387653930        2.0859690863        2.0670138113
 C          2.3362117586        1.6266315115        0.8177084820
 C          1.6102821767        0.6323637784        0.1752296616
 H          1.9111990847        0.3301232245       -0.8130977922
 N          3.4782881597        2.1470260002        0.1959713730
 S          4.4351518304        1.1766453278       -0.7629739288
 O          5.7415361943        1.7995019991       -0.7103109040
 O          3.8685407829        1.0293904090       -2.0796791627
 C          4.4859583460       -0.4076880121        0.0588460459
 C          4.8563075687       -0.4527070013        1.3884555649
 C          4.8913033508       -1.6780548374        2.0336414101
 C          4.5611788516       -2.8333536379        1.3417393113
 C          4.2009911584       -2.7733809040        0.0047064096
 C          4.1610676627       -1.5493968323       -0.6443017312
 H          3.8790872717       -1.4559617897       -1.6810687861
 H          3.9468892691       -3.6730022290       -0.5332827424
 H          4.5853579069       -3.7863248485        1.8462311627
 H          5.1734652428       -1.7288362239        3.0728325245
 H          5.1148885448        0.4608611293        1.8982248307
 H          4.0149908281        2.8009681509        0.7451295387
 H          2.5000825297        2.8636619406        2.5620317582
 H          0.4842445369        1.9102856482        3.6208517242
 H         -0.7892580705        0.1315851728        2.4814513254
 H         -0.5357744345       -1.7747148654        0.8647392396
 C          0.4117883351       -1.6859824386       -1.0253521031
 C         -0.3229453606       -2.4299887462       -2.0985864306
 C          0.4044260433       -1.1626579524       -2.4289740832
 H          1.3172469604       -1.2202600064       -3.0048152876
 H         -0.1710837025       -0.2723371933       -2.6298967636
 H          0.0860667303       -3.3659660644       -2.4478018604
 H         -1.4027406868       -2.4057756153       -2.0758762237
 H          1.3402960840       -2.1310891177       -0.6798500696
