  62
        -98.94652147
 C         -1.4942322706       -1.4172184596       -0.4270855696
 C         -2.7738979807       -1.3663478986        0.1796105100
 C         -3.5848119800       -0.1800962083       -0.1220977106
 C         -3.0770246593        0.7765650711       -0.9210914509
 C         -3.7740750284        2.0612376714       -1.2642524516
 C         -3.4371906580        3.1760404816       -0.2635150419
 C         -3.5585830286        2.7529453622        1.2000195782
 H         -2.8155212391        1.9807138619        1.4131959687
 H         -3.3065346382        3.6215911223        1.8124981979
 C         -4.9489471390        2.2369537232        1.5958624781
 H         -5.2329803290        2.6880268438        2.5490515579
 H         -5.6858620986        2.5528938233        0.8564106078
 C         -5.0336805699        0.7205721933        1.7769294687
 H         -5.9876568202        0.4879327741        2.2577426486
 H         -4.2394580503        0.3857963231        2.4490647390
 C         -4.9562484301       -0.1075878272        0.4882179290
 H         -5.6811749697        0.2705996029       -0.2355379813
 H         -5.2272822907       -1.1372821570        0.7393729794
 H         -4.1009321375        4.0214301219       -0.4539541624
 H         -2.4113434378        3.5055211709       -0.4386662018
 H         -3.4545201780        2.3695426108       -2.2610040616
 H         -4.8487200085        1.8884981420       -1.2782123117
 O         -1.8459932392        0.6938868802       -1.4838797906
 C         -1.0212732299       -0.3983686902       -1.2557580499
 O          0.0727441903       -0.3401039011       -1.8460689997
 O         -3.2176825514       -2.2725588381        0.9344928603
 C         -0.6018840914       -2.6083270300       -0.1157015190
 C          0.5550939487       -2.0937105803        0.7021825811
 C          0.3759208885       -1.8661850097        2.0639999410
 C          1.3810563787       -1.2999601300        2.8255788710
 C          2.5812974990       -0.9319325009        2.2416217411
 C          2.7636506992       -1.1444461515        0.8819995212
 C          1.7648307390       -1.7406864212        0.1242862212
 H          1.9210130192       -1.8917815818       -0.9317380287
 N          3.9698068896       -0.7360960025        0.2711217813
 S          4.2971189805        0.9072074874        0.3064928608
 O          5.3999585709        1.0977334864       -0.6083413791
 O          4.5309199105        1.3038167578        1.6725785806
 C          2.8343004411        1.7107294880       -0.3203635099
 C          2.7630671416        1.9995897275       -1.6676324800
 C          1.6122902121        2.5836607279       -2.1682115905
 C          0.5528125520        2.8563150389       -1.3186995809
 C          0.6365783615        2.5534520294        0.0305621493
 C          1.7875136911        1.9747633289        0.5392004198
 H          1.8877312707        1.7279158793        1.5839159499
 H         -0.1948372885        2.7555244801        0.6884285990
 H         -0.3487112176        3.2957785992       -1.7161106513
 H          1.5379118924        2.8120232676       -3.2192940406
 H          3.6096916216        1.7699404567       -2.2949047097
 H          4.0487118496       -1.0591503429       -0.6836320585
 H          3.3666823292       -0.4627895511        2.8117578311
 H          1.2289309085       -1.1363537194        3.8818875409
 H         -0.5711369917       -2.1276281890        2.5154892108
 H         -1.2073385219       -3.2699970594        0.5178391312
 C         -0.1932202115       -3.3653031107       -1.3610259686
 C          0.4024515176       -4.7336976310       -1.2230179579
 C         -0.9806081021       -4.5703452004       -1.7759930783
 H         -1.1392559420       -4.7436803407       -2.8298491482
 H         -1.8170340125       -4.8589256397       -1.1564775184
 H          1.1948934976       -5.0232615917       -1.8962080876
 H          0.5062241672       -5.1327209007       -0.2253089877
 H          0.1806515490       -2.7260200212       -2.1513507487
