  62
        -98.94670458
 C         -1.9895524497       -1.4534108525       -0.1032455146
 C         -1.7194917098       -0.2076180889       -0.7166059551
 C         -2.8766558982        0.6787737436       -0.9029216934
 C         -4.0981383800        0.2546174960       -0.5307506355
 C         -5.3517629541        1.0754890916       -0.6135391460
 C         -5.5933557840        1.8526494187        0.6884377423
 C         -4.3675906769        2.6161638001        1.1903467247
 H         -4.6654173398        3.1469367297        2.0972037485
 H         -3.5941395909        1.8998931135        1.4769718420
 C         -3.7834548447        3.6153505262        0.1819197808
 H         -3.5660597379        4.5503012692        0.7024934313
 H         -4.5222624564        3.8381763028       -0.5887366989
 C         -2.4815417533        3.1604069051       -0.4805397835
 H         -1.7732875932        2.8411606344        0.2886929948
 H         -2.0462987419        4.0205290372       -0.9966425061
 C         -2.6192526852        2.0298904186       -1.5084030358
 H         -3.3949178498        2.2833665190       -2.2337488899
 H         -1.6675016889        1.9417868913       -2.0409840673
 H         -6.4175980884        2.5495863533        0.5261415359
 H         -5.8957336368        1.1440004049        1.4630327736
 H         -5.2736945360        1.7650234384       -1.4518532307
 H         -6.1933240229        0.4024962104       -0.7860538511
 O         -4.3239478484       -0.9673384549        0.0169841493
 C         -3.2778589005       -1.8418315570        0.2634893848
 O         -3.6168248674       -2.9132300630        0.8053333884
 H          1.8770410931       -2.1046232947       -0.2653918707
 C          1.5313376998       -1.6674245368        0.6557339889
 C          0.1960812861       -1.7352756529        1.0189790335
 C         -0.1986675674       -1.1526432724        2.2217553261
 C          0.7163642794       -0.5086796323        3.0308490226
 C          2.0456120164       -0.4230103642        2.6530199533
 C          2.4515704253       -1.0049696918        1.4591423309
 N          3.8007802640       -0.9570775520        1.0612005696
 S          4.2164692760       -0.3242112021       -0.4330668170
 O          3.5915476107       -1.0863254198       -1.4817523098
 O          5.6636607622       -0.3100950233       -0.4292816548
 C          3.6114602600        1.3539547532       -0.4040033967
 C          2.2693495417        1.6003626614       -0.6117703135
 C          1.8141121672        2.9075884440       -0.5265250492
 C          2.6960383505        3.9367442605       -0.2376003465
 C          4.0414209322        3.6702449664       -0.0306815551
 C          4.5041476087        2.3671655815       -0.1090738615
 H          5.5413552335        2.1132760559        0.0399035286
 H          4.7276629274        4.4713810574        0.1923965684
 H          2.3325095285        4.9504197508       -0.1746030017
 H          0.7655138947        3.1021693433       -0.6874555813
 H          1.5903279214        0.7933113076       -0.8368120832
 H          4.4161902745       -0.5706507648        1.7636113569
 H          2.7624909755        0.0858590086        3.2796245400
 H          0.3932388220       -0.0629552739        3.9595305562
 H         -1.2395964427       -1.2134010828        2.5109284296
 C         -0.8496257556       -2.4182670616        0.1711429435
 H         -1.2814715684       -3.2429643027        0.7569224586
 C         -0.3086224639       -2.9783867714       -1.1273102799
 C          0.3487811739       -4.3244076201       -1.1473458245
 C         -1.0052896567       -4.1418511665       -1.7630940588
 H         -1.0916542873       -4.1662639995       -2.8391126073
 H         -1.8629734189       -4.5482853347       -1.2465583941
 H          0.4124633448       -4.8635289791       -0.2140729289
 H          1.1963419222       -4.4722410293       -1.7998562149
 H          0.0842145889       -2.2126518012       -1.7871006409
 O         -0.5714884307        0.1513293493       -1.0853544024
