  62
        -98.94365188
 C         -2.6138910120       -0.1778203641       -0.2540084967
 C         -2.1803612846       -0.9744742654        0.8349589294
 C         -1.7068965513       -2.3264258232        0.4937501240
 C         -1.6690634717       -2.7149304358       -0.7924354889
 C         -1.1681053183       -4.0440129822       -1.2787107971
 C          0.3275876449       -3.9967535567       -1.6168176011
 C          1.1984527695       -3.3937575431       -0.5138704559
 H          0.9794168194       -2.3267958944       -0.4218000766
 H          2.2375375544       -3.4721311957       -0.8435684904
 C          1.0469709018       -4.0648323472        0.8580779249
 H          2.0409353085       -4.2022226074        1.2890420372
 H          0.6019259623       -5.0543782465        0.7407831952
 C          0.2344086302       -3.2560589051        1.8711552595
 H          0.6104838947       -2.2300667826        1.9017997452
 H          0.3926947355       -3.6931728911        2.8613166889
 C         -1.2800323580       -3.2129395263        1.6299106204
 H         -1.7454641280       -2.7932408415        2.5267955237
 H         -1.6597667960       -4.2276546192        1.4873683420
 H          0.4601127210       -3.3945189311       -2.5186245445
 H          0.6626147719       -5.0138307101       -1.8311195841
 H         -1.3541344045       -4.7957885499       -0.5137971763
 H         -1.7253173824       -4.3086441614       -2.1793964511
 O         -2.0715970476       -1.9169755424       -1.8148095103
 C         -2.5334359738       -0.6367358880       -1.5713737380
 O         -2.8635526809       -0.0097927431       -2.6003994899
 H         -0.5270892907        0.9224469188        0.7413592338
 C         -0.6765116126        1.8688921266        0.2452070053
 C         -1.9300426368        2.2192598158       -0.2289351828
 C         -2.0865225459        3.4608277566       -0.8360360163
 C         -1.0079222049        4.3140988639       -0.9824947259
 C          0.2540252197        3.9335837653       -0.5613042279
 C          0.4182157083        2.6984281235        0.0535187074
 N          1.6785685222        2.2519306965        0.4831475883
 S          1.9982399491        0.6015334585        0.2709313722
 O          1.3974666754        0.1379041096       -0.9588613191
 O          1.6350172499       -0.0949995361        1.4779453847
 C          3.7747580338        0.6257499032        0.1145500175
 C          4.3367814308        0.6780154972       -1.1469537190
 C          5.7168505671        0.7301033340       -1.2647495220
 C          6.5068093481        0.7324118025       -0.1248256066
 C          5.9282762916        0.6782573223        1.1346361114
 C          4.5490079353        0.6246418156        1.2593777960
 H          4.0533895789        0.5713654170        2.2147245819
 H          6.5456075592        0.6764672678        2.0183270063
 H          7.5803876181        0.7734183891       -0.2190808731
 H          6.1688248521        0.7679211891       -2.2427830897
 H          3.6816349672        0.6640531224       -2.0034793756
 H          2.4384284729        2.8309226695        0.1522513726
 H          1.1039719311        4.5822104959       -0.7096780012
 H         -1.1441867736        5.2744432959       -1.4559687962
 H         -3.0570304174        3.7465062452       -1.2126433424
 C         -3.0926693965        1.2579669592       -0.1144833639
 H         -3.7499107516        1.4403438876       -0.9776406631
 C         -3.8828580653        1.5313775008        1.1503238743
 C         -4.9504477773        2.5823795671        1.1439312629
 C         -5.3255423410        1.1333315882        1.2155337545
 H         -5.7062868431        0.7368878016        2.1443494797
 H         -5.7537846951        0.6730832213        0.3366840880
 H         -5.1405782657        3.1046113267        0.2187868726
 H         -5.0753978947        3.1899440508        2.0268283936
 H         -3.2959522690        1.4132492824        2.0517837605
 O         -2.1868023635       -0.6050391897        2.0396070481
