  62
        -98.94117105
 C         -1.8704854862       -1.2863073029        0.1647797055
 C         -3.1096341490       -0.8900031783        0.7299394886
 C         -3.8639067994        0.1296240877       -0.0075842798
 C         -3.3515063530        0.6499513469       -1.1372820870
 C         -4.0100179715        1.6762952927       -2.0189032730
 C         -3.8147757236        3.1252218671       -1.5516211177
 C         -4.6099184101        3.5213008728       -0.3067881115
 H         -4.5519812735        4.6082966625       -0.2219922412
 H         -5.6594163866        3.2617174330       -0.4489668858
 C         -4.0958022789        2.8972377113        0.9982327675
 H         -4.0411712262        3.6654262951        1.7730919405
 H         -3.0795328686        2.5247301996        0.8474965962
 C         -4.9636872635        1.7631955421        1.5441352631
 H         -4.4874410938        1.3698849096        2.4460633310
 H         -5.9433417673        2.1555238183        1.8256604454
 C         -5.1664670857        0.5969278993        0.5682319389
 H         -5.6047706719       -0.2381995451        1.1202710483
 H         -5.8515368128        0.8879431560       -0.2279941482
 H         -4.1215550458        3.7761679269       -2.3735200557
 H         -2.7503826816        3.2966910088       -1.3734130858
 H         -3.5599461031        1.5709666611       -3.0084295738
 H         -5.0759368253        1.4599549598       -2.0975404879
 O         -2.1428096887        0.2726622748       -1.6287385590
 C         -1.3661240518       -0.6944071460       -0.9944482387
 O         -0.2788496935       -0.9075918964       -1.5581071272
 H         -0.1220754536        0.0633182528        1.5038615304
 C          0.6814598208       -0.6528119032        1.3799365351
 C          0.3743995127       -1.9661377768        1.0464352644
 C          1.4228967199       -2.8637596960        0.8865558751
 C          2.7338324783       -2.4574062712        1.0694456030
 C          3.0336514893       -1.1469961140        1.3895684454
 C          1.9947569889       -0.2340262202        1.5231473014
 N          2.2857988706        1.1136346261        1.7873031529
 S          3.5963115996        1.8134790179        1.0158914059
 O          4.7842743427        1.5914984498        1.8046704015
 O          3.2235957690        3.2002916252        0.8329458688
 C          3.7824322213        1.0011289098       -0.5637962025
 C          2.6746373148        0.7995483113       -1.3615248459
 C          2.8322561273        0.1575980583       -2.5788686908
 C          4.0912748705       -0.2564801502       -2.9843442526
 C          5.1977276549       -0.0335589745       -2.1790062312
 C          5.0435621070        0.5958586134       -0.9546928968
 H          5.8723601007        0.7729115246       -0.2883456377
 H          6.1765329312       -0.3553314907       -2.4965306699
 H          4.2078253852       -0.7587681322       -3.9316971362
 H          1.9596371515       -0.0313182486       -3.1830656554
 H          1.6963634509        1.1131571626       -1.0339236677
 H          1.4815917021        1.7225116714        1.7594143543
 H          4.0491300745       -0.8146742978        1.5340908622
 H          3.5348682999       -3.1706626547        0.9514927544
 H          1.2192232047       -3.8842746381        0.6092470858
 C         -1.0783960855       -2.3514772574        0.8994906464
 H         -1.5189796953       -2.3622455831        1.9116513000
 C         -1.2683747157       -3.7537395934        0.3337901664
 C         -2.3924815528       -4.0782860734       -0.6030982217
 C         -0.9810902668       -4.0655907815       -1.1037216096
 H         -0.5137908791       -5.0093024949       -1.3436318102
 H         -0.6679317384       -3.2467437968       -1.7320639054
 H         -3.0496490071       -3.2749488026       -0.9037705309
 H         -2.8928566732       -5.0283235834       -0.4879410847
 H         -1.0233286781       -4.5242473737        1.0578989677
 O         -3.5633095686       -1.3674998205        1.8041785295
