  62
        -98.94686416
 C         -1.2442915644       -1.2164496019        0.0882095907
 C         -2.0108249477       -0.7056609880        1.1613628519
 C         -2.6836507058        0.5769138038        0.9162112786
 C         -2.5067860424        1.1958436809       -0.2657797868
 C         -3.1815610497        2.4741849390       -0.6694477441
 C         -4.5112369156        2.1968652220       -1.3852432359
 C         -5.4206970062        1.2173959891       -0.6435157010
 H         -6.3406370862        1.1233745196       -1.2246158562
 H         -4.9485284994        0.2324489683       -0.6285161548
 C         -5.7650845304        1.6344705351        0.7931160350
 H         -5.5664353687        2.6982384636        0.9287691775
 H         -6.8341508824        1.4819454207        0.9558690410
 C         -5.0328136843        0.8403690796        1.8764273425
 H         -5.1556560632       -0.2299757413        1.6919973553
 H         -5.5038462182        1.0618967338        2.8379900195
 C         -3.5345025739        1.1355556806        2.0220286762
 H         -3.3802065724        2.2117871253        2.1236279016
 H         -3.1893581265        0.6516133681        2.9406939489
 H         -5.0331079871        3.1454487127       -1.5241380150
 H         -4.2937867479        1.7805942789       -2.3713993242
 H         -3.3550204253        3.0839167560        0.2150824952
 H         -2.5219026160        3.0139412085       -1.3498095960
 O         -1.7257148267        0.6960648798       -1.2552211906
 C         -1.0732739810       -0.5184656725       -1.1084474735
 O         -0.3885621323       -0.8569928791       -2.0894278249
 O         -2.1202303752       -1.2902358624        2.2743249406
 C         -0.5212711524       -2.5406017481        0.2619664924
 C          0.9647758176       -2.3093102038        0.1475445966
 C          1.7957050614       -3.0147250004       -0.7113872560
 C          3.1442614656       -2.7086725448       -0.7915527720
 C          3.6933170438       -1.7041399419       -0.0163101017
 C          2.8717170293       -1.0020099834        0.8565371828
 C          1.5235502767       -1.3085650988        0.9343561569
 H          0.8850155864       -0.7545801050        1.6119197434
 N          3.4187812277        0.0323583651        1.6491834742
 S          4.0037772008        1.3585885983        0.8077619906
 O          5.1791128425        0.9622826001        0.0755965067
 O          4.1872065391        2.3931510611        1.8005604272
 C          2.7001503667        1.8127782868       -0.3203578531
 C          2.6560430552        1.2349917825       -1.5730400531
 C          1.6153640467        1.5648947865       -2.4256909447
 C          0.6422868538        2.4608301830       -2.0125381293
 C          0.6954306841        3.0257555736       -0.7476787222
 C          1.7309034833        2.6960278497        0.1111259353
 H          1.8128090539        3.1200324612        1.0995070109
 H         -0.0675369323        3.7169183154       -0.4257316803
 H         -0.1669517899        2.7091419244       -2.6809126019
 H          1.5567078049        1.1115713090       -3.4015019973
 H          3.4327949599        0.5457929809       -1.8613687346
 H          2.7810717620        0.3548287805        2.3641166537
 H          4.7364164622       -1.4401874394       -0.0819680287
 H          3.7764455266       -3.2596860020       -1.4712057511
 H          1.3872777393       -3.7973877659       -1.3289002751
 H         -0.7405442984       -2.8631856294        1.2905838436
 C         -1.0571205560       -3.5785212279       -0.7002031622
 C         -0.9603047520       -5.0359929677       -0.3647860902
 C         -2.2893616062       -4.3449788373       -0.3274027897
 H         -3.0111100480       -4.5689399276       -1.0985758506
 H         -2.7318613099       -4.1366700826        0.6359798068
 H         -0.7714193243       -5.7380289286       -1.1627591222
 H         -0.5016860034       -5.3034328296        0.5751590587
 H         -0.9479080951       -3.2821323569       -1.7371053516
