  62
        -98.93756365
 C         -2.2495284030        0.7482870553        0.1459354579
 C         -3.5789617505        1.2011991632        0.3477291775
 C         -4.6346299809        0.4482914219       -0.3417166434
 C         -4.2908442566       -0.5659115530       -1.1555276465
 C         -5.2619436709       -1.4575791338       -1.8724221884
 C         -5.6059211692       -2.6922845504       -1.0274214280
 C         -5.9959808741       -2.3659113638        0.4143773682
 H         -6.2470698692       -3.3091981892        0.9042993974
 H         -5.1265718680       -1.9570747286        0.9348701751
 C         -7.1735251739       -1.3901623692        0.5488706337
 H         -7.8564936844       -1.7701814864        1.3114690150
 H         -7.7271209951       -1.3468098185       -0.3896770695
 C         -6.7796382701        0.0267379193        0.9705794477
 H         -7.6903809164        0.5651250479        1.2455555860
 H         -6.1461465008       -0.0187527107        1.8602680382
 C         -6.0575683429        0.8629752314       -0.0935361663
 H         -6.6305030487        0.8508066291       -1.0227417906
 H         -6.0097152466        1.8939315287        0.2689646324
 H         -4.7336240827       -3.3499281750       -1.0050656225
 H         -6.4226231556       -3.2276247487       -1.5149979560
 H         -6.1657584220       -0.8950249646       -2.0980621396
 H         -4.8033878648       -1.7839152180       -2.8073559604
 O         -3.0022048646       -0.9244125820       -1.3839341041
 C         -1.9476937259       -0.2908521480       -0.7353367217
 O         -0.8285260395       -0.7412528253       -1.0448439741
 H          1.4491020792        0.5135698259        0.9832276423
 C          1.2729315878        1.1923029713        0.1670723356
 C          0.0202397900        1.7535678046       -0.0238301999
 C         -0.1735157323        2.6068186015       -1.1070007986
 C          0.8566360178        2.8733445109       -1.9870615984
 C          2.1006527281        2.2963148027       -1.8037315880
 C          2.3087423557        1.4520705878       -0.7192999258
 N          3.5858290676        0.9043767298       -0.4927739864
 S          3.7875902472       -0.6563638347        0.1153537622
 O          3.2510901734       -1.6392322666       -0.7998089099
 O          3.3126807368       -0.7062729150        1.4742765861
 C          5.5708914474       -0.7340097863        0.1076372343
 C          6.2229266625       -1.3593172379       -0.9380070289
 C          7.6087778888       -1.3886680366       -0.9436722597
 C          8.3156964118       -0.7929601231        0.0898117795
 C          7.6475875090       -0.1702748016        1.1337364117
 C          6.2623273416       -0.1384440183        1.1453732825
 H          5.7000741338        0.3256487451        1.9386307861
 H          8.2005167804        0.2885972910        1.9374340676
 H          9.3939406552       -0.8176347791        0.0835772659
 H          8.1303664298       -1.8755038669       -1.7519378382
 H          5.6317342191       -1.8174444235       -1.7147995411
 H          4.1947570549        1.0298893007       -1.2911848782
 H          2.9038079721        2.4964516011       -2.4970357260
 H          0.6900002683        3.5299011120       -2.8280157152
 H         -1.1506932762        3.0461574953       -1.2572919132
 C         -1.1438378741        1.4729394335        0.8920342045
 H         -1.5931745986        2.4394781344        1.1770525910
 C         -0.7291021283        0.7883575424        2.1859706882
 C         -1.6990631326       -0.0330044053        2.9797219988
 C         -0.5505318773       -0.6959429695        2.2831834202
 H          0.2713193341       -1.0747421346        2.8738884233
 H         -0.7472019187       -1.2824465974        1.3985140882
 H         -2.6900657709       -0.1702588085        2.5719182779
 H         -1.6755611978        0.0427794275        4.0563176912
 H         -0.0342578809        1.3950363724        2.7592903108
 O         -3.8677451497        2.1917100622        1.0705004239
