  62
        -98.93875796
 C         -2.7832613588       -0.2656013905       -0.3805307161
 C         -2.9631108903        0.6657617602        0.6750731276
 C         -2.6576006643        2.0658734864        0.3710750286
 C         -2.2394196856        2.4006624519       -0.8625227099
 C         -1.8508824574        3.7780651615       -1.3246228906
 C         -0.4033021152        4.1482371917       -0.9711693106
 C         -0.1608159411        4.4829510716        0.5013715280
 H          0.8180759529        4.9623729528        0.5633646132
 H         -0.9030858380        5.2075610141        0.8389508500
 C         -0.1656969576        3.2632180092        1.4337792101
 H         -0.0146558136        2.3523130172        0.8476291089
 H          0.6811836535        3.3256230155        2.1221020626
 C         -1.4266930885        3.1152273389        2.2861505164
 H         -1.4869359557        3.9448283730        2.9948583726
 H         -1.3395851209        2.1873786997        2.8578989868
 C         -2.7356809967        3.0617864537        1.4881140504
 H         -3.5334089330        2.7412965734        2.1630221440
 H         -2.9800418098        4.0500766750        1.0992512949
 H         -0.1318662763        5.0198074795       -1.5716505400
 H          0.2501799849        3.3210825124       -1.2609570475
 H         -2.5331319529        4.5173187717       -0.9040252323
 H         -1.9544835447        3.7840898909       -2.4117591087
 O         -2.1276284354        1.4905858687       -1.8627903686
 C         -2.3429224448        0.1352083999       -1.6421656235
 O         -2.1208618063       -0.5702696605       -2.6455462919
 O         -3.3609782947        0.3329256649        1.8240148847
 C         -2.9552846126       -1.7308963335       -0.0134983790
 C         -1.6473317771       -2.2069968690        0.5687282434
 C         -1.5720117745       -2.8327103410        1.8064395759
 C         -0.3442940848       -3.1492863315        2.3646264486
 C          0.8319947620       -2.8321447419        1.7082994976
 C          0.7630895039       -2.2238176295        0.4640712885
 C         -0.4642003856       -1.9314851307       -0.1036691955
 H         -0.4991990658       -1.4421310569       -1.0673335693
 N          1.9668208492       -1.8122532203       -0.1822483443
 S          2.2995766173       -0.1967244608        0.2249224324
 O          2.1211606307       -0.0514954845        1.6470144896
 O          1.5383311061        0.6993118620       -0.6209436184
 C          4.0322932359       -0.0999085866       -0.1819770696
 C          4.9347326134       -0.6931352732        0.6796135302
 C          6.2816830871       -0.6738363715        0.3563973702
 C          6.7011362697       -0.0663010406       -0.8180467293
 C          5.7834988129        0.5259202048       -1.6720522217
 C          4.4339282022        0.5081165035       -1.3547894079
 H          3.6855850418        0.9592441974       -1.9868960373
 H          6.1118396369        0.9992851746       -2.5834238723
 H          7.7499700494       -0.0531182276       -1.0690890148
 H          6.9984732569       -1.1320086827        1.0185946348
 H          4.5609265932       -1.1456784526        1.5829189701
 H          1.8575612906       -1.8347998385       -1.1893787906
 H          1.7945992302       -3.0304691154        2.1496559434
 H         -0.3042535084       -3.6253004397        3.3324853786
 H         -2.4832303342       -3.0401188484        2.3482805069
 H         -3.7014639925       -1.7402419210        0.7967373249
 C         -3.4815633213       -2.6080016665       -1.1372989433
 C         -2.6525081776       -3.6512365241       -1.8190321949
 C         -3.7442275120       -4.0626843167       -0.8803870297
 H         -4.6397197238       -4.5062908578       -1.2876303885
 H         -3.4511448842       -4.4559401461        0.0813698032
 H         -2.7949809976       -3.7864690917       -2.8801488986
 H         -1.6301173596       -3.7800150080       -1.4991372970
 H         -4.1982306236       -2.0835508706       -1.7599450356
