  62
        -98.94023318
 C          2.4893998525        1.1414863932        0.0174284166
 C          2.6313218368        0.0049504346       -0.8145082261
 C          4.0057312610       -0.4839265302       -0.9977239485
 C          5.0223491001        0.1650854696       -0.4011836735
 C          6.4602200147       -0.2618507398       -0.4532205179
 C          6.8045584910       -1.1924370219        0.7184176219
 C          5.8117572203       -2.3391397034        0.9097348368
 H          6.1713228121       -2.9443099147        1.7447716159
 H          4.8434310227       -1.9280302017        1.2044981910
 C          5.6263007703       -3.2312606186       -0.3255924295
 H          6.4591870860       -3.0874427603       -1.0147497972
 H          5.6439285995       -4.2761248026       -0.0087719267
 C          4.3086744468       -3.0145947856       -1.0721775993
 H          4.1832640704       -3.8330956930       -1.7859929345
 H          3.4740120176       -3.0639355685       -0.3680438640
 C          4.1960908094       -1.7017184102       -1.8573729643
 H          5.0656546158       -1.5843225672       -2.5071458008
 H          3.3025054739       -1.7659372955       -2.4852283954
 H          6.8240424678       -0.6001519325        1.6361583899
 H          7.8044776350       -1.5981051009        0.5544113142
 H          6.6501719161       -0.7651834470       -1.3990668148
 H          7.0862324016        0.6299352666       -0.3935814943
 O          4.8472023977        1.2685458278        0.3707960044
 C          3.5807032326        1.7752329888        0.6106289832
 O          3.5578980178        2.7739362465        1.3586009166
 H         -1.4402351869        0.9015286123       -0.4444332715
 C         -1.0442424398        0.3644694755        0.4007948327
 C          0.2213256908        0.6451193455        0.8887194781
 C          0.6875882430       -0.0746960336        1.9866067522
 C         -0.0892655526       -1.0558847713        2.5701369190
 C         -1.3540457972       -1.3321659977        2.0808160238
 C         -1.8295975987       -0.6193832793        0.9871494582
 N         -3.0966446941       -0.8986416073        0.4509372370
 S         -4.0061102115        0.3633071443       -0.2020876529
 O         -3.5662955150        0.6169951265       -1.5506090816
 O         -3.9998515330        1.4959699476        0.6965942208
 C         -5.6195150996       -0.3964880720       -0.2309194909
 C         -6.5244554297       -0.1146804565        0.7748598279
 C         -7.7633999501       -0.7360688492        0.7553301113
 C         -8.0733560486       -1.6259578235       -0.2620072510
 C         -7.1549208096       -1.8981399504       -1.2653195909
 C         -5.9150260360       -1.2795379066       -1.2525212271
 H         -5.1731282413       -1.4530753100       -2.0146058779
 H         -7.4004841216       -2.5883135878       -2.0562871379
 H         -9.0378583576       -2.1084878309       -0.2750037097
 H         -8.4806880922       -0.5242662956        1.5317954237
 H         -6.2424057447        0.5896969094        1.5408294001
 H         -3.6561585311       -1.4902547099        1.0497975035
 H         -1.9624651857       -2.0987706860        2.5361659040
 H          0.2890344278       -1.6070821958        3.4181544366
 H          1.6737578044        0.1472272918        2.3730685491
 C          1.1082897673        1.7093533514        0.2890720765
 H          1.2446466173        2.5009417680        1.0412984421
 C          0.5400394210        2.3305291887       -0.9693633843
 C         -0.4677542534        3.4350056056       -0.8749636321
 C          0.9281832835        3.7307676395       -1.3329580850
 H          1.0910141369        3.9673864997       -2.3736498914
 H          1.5895421729        4.2524135640       -0.6562511344
 H         -1.2693367567        3.4623184571       -1.5983901547
 H         -0.7621535400        3.7602701948        0.1118259045
 H          0.4344981151        1.6146457091       -1.7772062682
 O          1.6637368257       -0.5746088005       -1.3735591076
