  62
        -98.94904117
 C         -0.8781675658       -1.3550956895        0.2321133287
 C         -1.4448409783       -0.2902138242        0.9689991499
 C         -2.2763876806        0.6486281671        0.2047212498
 C         -2.3907444552        0.4896522103       -1.1266553911
 C         -3.2142954370        1.3670366357       -2.0245380541
 C         -4.6368492920        0.8160702341       -2.1937552589
 C         -5.3173630086        0.4566581157       -0.8728832662
 H         -6.3250610972        0.1092051762       -1.1104329125
 H         -4.7865029247       -0.3823819645       -0.4173317086
 C         -5.3977725561        1.6128498205        0.1336108464
 H         -6.4016913403        1.6332217168        0.5627196384
 H         -5.2461878244        2.5623408197       -0.3809840920
 C         -4.4163233438        1.5058047495        1.3020516278
 H         -4.4978719686        0.5157977282        1.7573620011
 H         -4.7086130546        2.2394011786        2.0579711933
 C         -2.9410425952        1.7611171521        0.9665901374
 H         -2.8436597372        2.7093045984        0.4328709193
 H         -2.3972014644        1.8341100387        1.9128249476
 H         -5.2341473692        1.5600116550       -2.7242083492
 H         -4.5875922550       -0.0835833912       -2.8115463740
 H         -3.2495908999        2.3724620891       -1.6086243801
 H         -2.7263115954        1.4072852616       -3.0003826422
 O         -1.8007672624       -0.5249015481       -1.8075948654
 C         -1.0325920792       -1.4724458200       -1.1499633231
 O         -0.5618124031       -2.3580367957       -1.8894690151
 O         -1.2591908493       -0.1280904387        2.2057926038
 C          0.0093989824       -2.3560575961        0.9503445148
 C          1.3930245269       -2.3081472920        0.3506610441
 C          2.1351692214       -3.4361806469        0.0275798482
 C          3.3760692926       -3.3066315687       -0.5727330590
 C          3.8908239286       -2.0605593080       -0.8786466041
 C          3.1621592458       -0.9247627850       -0.5425965237
 C          1.9423876039       -1.0573712714        0.0972805345
 H          1.3820674448       -0.1715618077        0.3594309680
 N          3.6466062566        0.3607172359       -0.8249202453
 S          2.5768794822        1.5912874006       -1.2028064960
 O          1.4115180626        1.1160597494       -1.9117556837
 O          3.3921976528        2.5612839546       -1.9065104939
 C          2.1227989510        2.2787846194        0.3744159627
 C          3.1186755503        2.5101732996        1.3029281027
 C          2.7799905676        3.0833183765        2.5177134563
 C          1.4607952953        3.4224410250        2.7779606418
 C          0.4744968773        3.1902409657        1.8325614817
 C          0.8054454844        2.6101463081        0.6182864873
 H          0.0640492077        2.3931213481       -0.1362018671
 H         -0.5513997587        3.4513615622        2.0354982219
 H          1.1966132513        3.8691553553        3.7234433090
 H          3.5435853727        3.2640954487        3.2569648379
 H          4.1321916230        2.2371434373        1.0613580623
 H          4.4793709915        0.3912475677       -1.3948441494
 H          4.8426082436       -1.9631046647       -1.3781672750
 H          3.9409868137       -4.1908525627       -0.8264303591
 H          1.7366614173       -4.4168157667        0.2296833673
 H          0.0677832261       -2.0036699383        1.9911794495
 C         -0.6122888842       -3.7363991381        0.9337261335
 C         -0.3378191073       -4.7047050907        2.0445122478
 C         -1.6849205116       -4.0591699843        1.9291159957
 H         -2.5222596777       -4.6603283769        1.6078627614
 H         -1.9473568802       -3.2894588832        2.6401378087
 H         -0.2521980143       -5.7536535137        1.8040527921
 H          0.3121941247       -4.3789249683        2.8421987270
 H         -0.7283481799       -4.1257378500       -0.0717337362
