  62
        -98.93885417
 C         -2.5283636324       -1.2138598584        0.3401694242
 C         -2.6509163082       -0.4885710150       -0.8676363123
 C         -3.4371695844        0.7585222775       -0.8043973241
 C         -3.9540835132        1.1476822924        0.3737599005
 C         -4.7323210741        2.4005464813        0.6679481785
 C         -3.7975158552        3.5216082649        1.1531664804
 C         -3.1799291646        4.3723841434        0.0440231237
 H         -3.9552049673        5.0002691841       -0.4000618993
 H         -2.4481234882        5.0354122796        0.5115423816
 C         -2.4864483537        3.5897233745       -1.0743284205
 H         -1.7946098465        4.2677109043       -1.5785580894
 H         -1.8838075281        2.7852085849       -0.6465612518
 C         -3.4676580439        3.0183680088       -2.1088672604
 H         -4.4470970671        3.4724744657       -1.9596525829
 H         -3.1418184198        3.3053039988       -3.1107811831
 C         -3.5996852801        1.4890151205       -2.1094202003
 H         -2.8316635319        1.0600611079       -2.7611437478
 H         -4.5672218412        1.2150228365       -2.5434417973
 H         -4.3589016789        4.1850397012        1.8141402990
 H         -3.0034440499        3.0631189528        1.7487182691
 H         -5.3034458576        2.7131192581       -0.2008997972
 H         -5.4251356175        2.1528304341        1.4748604225
 O         -3.7757339755        0.4378443329        1.5231118955
 C         -3.0621598175       -0.7458726968        1.5396008871
 O         -2.9672581252       -1.2762547880        2.6660795362
 O         -2.1302898989       -0.8592383113       -1.9519174623
 C         -1.7447693414       -2.5150686634        0.3746945889
 C         -0.3023451961       -2.2379242034        0.0244968557
 C          0.3911160564       -2.8955028624       -0.9817400137
 C          1.7063879955       -2.5613300663       -1.2575485627
 C          2.3582741013       -1.5792104330       -0.5352636224
 C          1.6752931245       -0.9192027905        0.4786056050
 C          0.3588609684       -1.2543131738        0.7508850729
 H         -0.1759583126       -0.7367606606        1.5391725866
 N          2.3341924821        0.0719819881        1.2307686216
 S          3.0517054891        1.3354399541        0.3840021209
 O          3.0911737499        2.4402340872        1.3179703012
 O          2.3836157634        1.5794497189       -0.8732699239
 C          4.7115017930        0.7586694912        0.0978824217
 C          5.2030669118        0.6844014829       -1.1905691140
 C          6.4995676692        0.2345653341       -1.3876442213
 C          7.2766725738       -0.1300019487       -0.2988459228
 C          6.7685913935       -0.0468883181        0.9891769085
 C          5.4739983134        0.4030367651        1.1932543346
 H          5.0420043272        0.4865877267        2.1765073434
 H          7.3759832524       -0.3309886815        1.8333178235
 H          8.2843348702       -0.4813548924       -0.4550807214
 H          6.8961580665        0.1694637733       -2.3880879730
 H          4.5590558089        0.9728059609       -2.0061282871
 H          1.7723545656        0.4380311589        1.9863706641
 H          3.3808859870       -1.3153413683       -0.7499174409
 H          2.2313459888       -3.0743935539       -2.0487709051
 H         -0.1008748868       -3.6601980024       -1.5594265597
 H         -1.7781063295       -2.8588123882        1.4189509313
 C         -2.4015424050       -3.5578931820       -0.5036854627
 C         -2.2060120309       -5.0143850024       -0.2117990922
 C         -3.5307827365       -4.3675337447        0.0563186272
 H         -4.3634318605       -4.6053504679       -0.5884113741
 H         -3.8137343427       -4.1817266821        1.0825081704
 H         -2.1313549307       -5.7012128923       -1.0411365426
 H         -1.5899351626       -5.2755945585        0.6351913045
 H         -2.4763450335       -3.2456254772       -1.5385255038
