  62
        -98.94269475
 C         -1.6201627007       -1.4776065741        0.2336184778
 C         -1.3200671794       -0.3779608714       -0.6025566120
 C         -1.9861613944        0.8899012780       -0.2750212762
 C         -2.7996188259        0.9423400343        0.7951220641
 C         -3.5861607697        2.1438062416        1.2370073705
 C         -4.8137353866        2.3462825777        0.3260817563
 C         -4.7774102538        3.6310601094       -0.5014102397
 H         -5.5712030787        3.5625737923       -1.2482079674
 H         -5.0071454481        4.4781245381        0.1482877498
 C         -3.4513264655        3.9271642415       -1.2077030706
 H         -2.7402690136        4.3464756968       -0.4941110426
 H         -3.6503949770        4.7075172040       -1.9453092295
 C         -2.7909812861        2.7362962788       -1.9137372908
 H         -2.3663704313        3.0929840031       -2.8541808305
 H         -3.5336555496        1.9791496992       -2.1656118527
 C         -1.6410353633        2.0792577597       -1.1281247833
 H         -0.9031134490        1.7030644931       -1.8431127888
 H         -1.1375279455        2.8275897576       -0.5081631839
 H         -4.8907844274        1.4840465396       -0.3392916178
 H         -5.7193238307        2.3561217773        0.9344805244
 H         -3.8999068026        1.9631573357        2.2656508571
 H         -2.9435797008        3.0218473162        1.2222788306
 O         -3.0622252839       -0.1364254845        1.5790702359
 C         -2.4666528332       -1.3624091517        1.3333171743
 O         -2.7670342805       -2.2575157732        2.1512125191
 H          0.4840828246       -1.2137543241        1.6081669871
 C          1.1217287841       -1.7316463257        0.9060846851
 C          0.5666289530       -2.6113201176       -0.0146523439
 C          1.4168889896       -3.2706296927       -0.8939922293
 C          2.7799132164       -3.0298014131       -0.8670430428
 C          3.3201462470       -2.1125351016        0.0157276809
 C          2.4786813333       -1.4558038776        0.9058536652
 N          2.9688815126       -0.4906239159        1.8119237202
 S          2.4278901001        1.0831102164        1.5985817128
 O          3.1375595106        1.8595528146        2.5936623596
 O          0.9900288221        1.1271316528        1.6619868800
 C          3.0189110113        1.5297151717       -0.0248741378
 C          2.3397823740        1.0860284523       -1.1416809768
 C          2.8599431214        1.3769475163       -2.3941533771
 C          4.0391032506        2.0962417642       -2.5089753315
 C          4.7088068305        2.5335247055       -1.3757956176
 C          4.1986138220        2.2436439414       -0.1211434895
 H          4.6818557594        2.5635853694        0.7880350410
 H          5.6249632803        3.0946883004       -1.4657815351
 H          4.4370691010        2.3169700498       -3.4869084882
 H          2.3333209942        1.0318899405       -3.2695353706
 H          1.4208218316        0.5305896230       -1.0333790780
 H          3.9776736645       -0.4801477703        1.8840693234
 H          4.3792505054       -1.9028959496        0.0179003447
 H          3.4272897098       -3.5490316154       -1.5569686162
 H          1.0101132184       -3.9694659245       -1.6065606592
 C         -0.9308001905       -2.8086839115       -0.0044909154
 H         -1.1907285883       -3.4461278544        0.8538074073
 C         -1.4566086631       -3.4535933835       -1.2711725681
 C         -1.5323018764       -4.9455575147       -1.3896540079
 C         -2.7867817134       -4.1417531783       -1.2310202252
 H         -3.4473476454       -4.0388110070       -2.0787812551
 H         -3.2989811858       -4.1694156528       -0.2799039426
 H         -1.1996971265       -5.5325946392       -0.5469188842
 H         -1.3352741027       -5.3975458993       -2.3500981775
 H         -1.2170604635       -2.8785155378       -2.1582393240
 O         -0.5225612877       -0.4528060026       -1.5753401249
