  62
        -98.94560614
 C         -1.4776549882       -1.3281928459       -0.6379449659
 C         -2.7855112256       -1.2624154838       -0.0890601919
 C         -3.6180581401       -0.1332369545       -0.5124806059
 C         -3.1284149648        0.7592831530       -1.3915232671
 C         -3.8527621107        1.9634587417       -1.9292813655
 C         -3.7782868349        3.1904636096       -1.0103204913
 C         -4.6328162797        3.1065604204        0.2552251697
 H         -4.6639259360        4.1088810812        0.6870505993
 H         -5.6541703472        2.8353674399       -0.0143249446
 C         -4.1012504394        2.1309197717        1.3148230268
 H         -3.0527224667        1.9014604282        1.1064382933
 H         -4.1307892122        2.6091079012        2.2967961268
 C         -4.8858694617        0.8230725250        1.4244677910
 H         -4.3977146348        0.1947778266        2.1739683525
 H         -5.9008126008        1.0336231858        1.7690948995
 C         -4.9688602500        0.0235204543        0.1178579885
 H         -5.6585044521        0.5049550552       -0.5751410359
 H         -5.3446349912       -0.9757540129        0.3511196543
 H         -2.7337251639        3.3567509478       -0.7340975824
 H         -4.1103417911        4.0545074201       -1.5909131407
 H         -4.8965265213        1.7109324889       -2.1188053028
 H         -3.3762880081        2.2155705796       -2.8790953962
 O         -1.8850911108        0.6468638005       -1.9220919194
 C         -1.0174512749       -0.3682870241       -1.5393252743
 O          0.0941776580       -0.2966479267       -2.0981337121
 O         -3.2391998154       -2.1201768904        0.7157241755
 C         -0.6010958367       -2.4643392129       -0.1354175629
 C          0.1521474998       -2.0042956706        1.0914460860
 C         -0.0599972903       -2.6110116529        2.3231386185
 C          0.5925572473       -2.1506105075        3.4530767661
 C          1.4528839031       -1.0718890400        3.3749342691
 C          1.6749913040       -0.4576977422        2.1451558241
 C          1.0420781073       -0.9412241094        1.0098474828
 H          1.2039925391       -0.4562077823        0.0619312541
 N          2.5525213930        0.6275456421        2.0549927638
 S          2.4423460330        1.8259665094        0.8909910859
 O          3.0473206396        2.9789951908        1.5283509299
 O          1.0894906311        2.0024804686        0.4204916672
 C          3.5448653515        1.2525346910       -0.3836347094
 C          4.8949979124        1.2667992407       -0.0853738112
 C          5.7986494914        0.8141551502       -1.0312133202
 C          5.3396543207        0.3554791354       -2.2574568053
 C          3.9837528716        0.3514774276       -2.5419834582
 C          3.0718935366        0.8045991846       -1.5990883598
 H          2.0109279301        0.7971682243       -1.7978136667
 H          3.6198870986       -0.0052387333       -3.4925348625
 H          6.0413055371        0.0000965212       -2.9957119061
 H          6.8541696750        0.8186194129       -0.8118520696
 H          5.2077824227        1.6430985833        0.8744077992
 H          2.8868452640        0.9845876531        2.9372220336
 H          1.9473890010       -0.6981180668        4.2586435301
 H          0.4180571283       -2.6262427026        4.4063029029
 H         -0.7597153442       -3.4304580340        2.3950977499
 H         -1.3020321537       -3.2489500912        0.1822303767
 C          0.3378360760       -3.0524833006       -1.1673731208
 C          0.8336018052       -4.4538260693       -0.9773215926
 C         -0.1519181824       -4.1479183444       -2.0641846235
 H          0.1843259321       -4.1604443650       -3.0898305106
 H         -1.1722546649       -4.4794347654       -1.9365057031
 H          1.8513596481       -4.6802739213       -1.2548749247
 H          0.4811909145       -4.9970659054       -0.1136077124
 H          1.0204696088       -2.3308199177       -1.5950597368
