  62
        -98.94349730
 C         -1.9774110062       -1.4410996033        0.1499778346
 C         -2.2044285660       -0.5016493222        1.1894289289
 C         -3.2022103054        0.5381835399        0.9206919575
 C         -3.8341880392        0.5610542518       -0.2668918019
 C         -4.9114096922        1.5265831594       -0.6811489437
 C         -4.3862768722        2.8682618344       -1.2092987669
 C         -3.8094542320        3.8036234868       -0.1462911110
 H         -3.6906214221        4.7836921945       -0.6124703290
 H         -4.5281900670        3.9160444106        0.6660473053
 C         -2.4532252135        3.3585482188        0.4182640546
 H         -2.0044004208        2.6207317780       -0.2507082822
 H         -1.7806098607        4.2186000884        0.4522368984
 C         -2.5125511961        2.7735371918        1.8296118144
 H         -1.5079824266        2.4473479294        2.1114089782
 H         -2.8257798632        3.5466885801        2.5350154233
 C         -3.4534287714        1.5711649802        1.9778066712
 H         -4.4920413919        1.9004268030        1.9464027897
 H         -3.2640805574        1.1055584647        2.9483116668
 H         -3.6300086455        2.6714036197       -1.9724063470
 H         -5.2232369778        3.3762162279       -1.6939195789
 H         -5.4733605873        1.0383083903       -1.4802490835
 H         -5.5853228993        1.7034403599        0.1578960115
 O         -3.5712168808       -0.3397713133       -1.2474479531
 C         -2.6314682260       -1.3481970364       -1.0794933824
 O         -2.4972067665       -2.0710368268       -2.0847784977
 O         -1.6089462594       -0.5427443425        2.2999663262
 C         -0.9664261893       -2.5411849528        0.4304975592
 C          0.3736702939       -2.1734639087       -0.1599926824
 C          0.6304765164       -2.2705891056       -1.5232765289
 C          1.8659547786       -1.9075043617       -2.0286181727
 C          2.8658167853       -1.4406941818       -1.1930705864
 C          2.6130385061       -1.3239009192        0.1671981154
 C          1.3728112372       -1.6897618557        0.6734190805
 H          1.1733734427       -1.5860316925        1.7315890669
 N          3.6176538406       -0.8429610574        1.0250884064
 S          4.4762866303        0.5142879857        0.5576628327
 O          5.4610909397        0.1473656164       -0.4285765589
 O          4.9892426260        1.0769867854        1.7860742652
 C          3.2627340683        1.6010639094       -0.1679565414
 C          3.2968455069        1.8787325812       -1.5190135303
 C          2.3153446779        2.6939296843       -2.0601021674
 C          1.3215963148        3.2130390843       -1.2451159585
 C          1.3050355053        2.9294625601        0.1120048147
 C          2.2812504988        2.1130071140        0.6574112927
 H          2.2970571289        1.8775473106        1.7096593166
 H          0.5323738342        3.3347294202        0.7452671473
 H          0.5551264356        3.8439647913       -1.6672044844
 H          2.3267463334        2.9188528720       -3.1144338889
 H          4.0884234996        1.4580767696       -2.1172434987
 H          3.3296280650       -0.7737081721        1.9901645538
 H          3.8370445194       -1.1685358700       -1.5728148258
 H          2.0547263897       -1.9905717078       -3.0881314368
 H         -0.1520976318       -2.6099721154       -2.1833005625
 H         -0.8543173458       -2.5499814560        1.5233157642
 C         -1.4243228002       -3.9161881139       -0.0108344492
 C         -0.7393574010       -5.1208566084        0.5590653734
 C         -2.1448891791       -4.7954259554        0.9647147948
 H         -2.9465113574       -5.4198841003        0.5998939562
 H         -2.3124691617       -4.4093387945        1.9598051479
 H         -0.5725190519       -5.9710513682       -0.0841361609
 H          0.0479601796       -4.9540756353        1.2789036187
 H         -1.7439929796       -3.9597628453       -1.0431409096
