  62
        -98.93588075
 C         -2.3767518709       -0.7232816475        0.2337838489
 C         -2.5076825417        0.6895722180        0.2540733597
 C         -3.7332120997        1.2410597150       -0.3329006724
 C         -4.6446462599        0.4099497448       -0.8695924069
 C         -5.9331510285        0.8140973512       -1.5335166189
 C         -7.0919038622        1.0546625793       -0.5563289181
 C         -6.9866882933        2.3338813529        0.2747679055
 H         -6.8091402886        3.1822371980       -0.3868124050
 H         -7.9573946594        2.4882746472        0.7500223974
 C         -5.9056663511        2.2938967847        1.3639814000
 H         -5.6084240905        1.2583925255        1.5453292221
 H         -6.3170013632        2.6771485305        2.3005190522
 C         -4.6564178123        3.1169780172        1.0487763227
 H         -4.9183302961        4.1760817681        0.9953311656
 H         -3.9439822533        2.9875562132        1.8677667281
 C         -3.9516298597        2.7219776960       -0.2557169608
 H         -4.5282038879        3.0664010626       -1.1141941681
 H         -2.9705832805        3.2034340828       -0.2760027647
 H         -7.1713572225        0.1927209371        0.1099839959
 H         -8.0099052385        1.1048728998       -1.1462792789
 H         -5.7695181018        1.7097135023       -2.1334919543
 H         -6.2091406366       -0.0062845760       -2.1993706880
 O         -4.4780848793       -0.9369784276       -0.8862435319
 C         -3.3560107960       -1.5434144075       -0.3296082752
 O         -3.3729948053       -2.7841497302       -0.4143528673
 H          1.4516196900       -0.4706776508        0.9999231174
 C          1.2463596823       -0.9990423704        0.0810780277
 C         -0.0296648843       -1.4821395994       -0.1709139750
 C         -0.2736168403       -2.1388180597       -1.3733665420
 C          0.7407399686       -2.3015090567       -2.2988527990
 C          2.0104474037       -1.8131071800       -2.0467508548
 C          2.2672475185       -1.1609286265       -0.8459874107
 N          3.5627427924       -0.7033010376       -0.5511841739
 S          3.7627177250        0.7244107975        0.3284486283
 O          3.4916162122        0.4542235861        1.7176314232
 O          3.0110187640        1.7969939262       -0.2833630991
 C          5.5120848105        0.9818957358        0.0991823485
 C          5.9503745763        1.8990199247       -0.8369546604
 C          7.3136717222        2.0678302111       -1.0228703990
 C          8.2100415102        1.3185232786       -0.2758808311
 C          7.7548826103        0.4023566751        0.6609898355
 C          6.3934904017        0.2298319383        0.8529979880
 H          5.9935823577       -0.4624742728        1.5752543470
 H          8.4550073429       -0.1761943415        1.2417509794
 H          9.2702237725        1.4516062995       -0.4226534565
 H          7.6703262520        2.7818115975       -1.7476651617
 H          5.2163608432        2.4644560342       -1.3884953989
 H          4.1684950976       -0.7135224551       -1.3611224365
 H          2.7989900562       -1.9387658582       -2.7731377570
 H          0.5388292412       -2.8110325793       -3.2291010286
 H         -1.2629380017       -2.5233067926       -1.5700746045
 C         -1.1173029615       -1.2968442593        0.8570930715
 H         -0.7707116272       -0.5165515521        1.5548972542
 C         -1.3684333034       -2.5554042221        1.6774411675
 C         -0.8910235393       -3.9153104648        1.2756076850
 C         -0.2343783999       -3.2021831941        2.4167786155
 H         -0.4074367661       -3.5567069547        3.4216170143
 H          0.7544594270       -2.7986042039        2.2545628541
 H         -0.3445851489       -4.0113669070        0.3510416450
 H         -1.5386885042       -4.7522945518        1.4864400129
 H         -2.3238471845       -2.5161904936        2.1911912233
 O         -1.6366722332        1.4565804518        0.7488953517
