  62
        -98.93457686
 C          2.1119984342        1.0872234701       -0.0503989568
 C          2.7044943235        0.3351584943        0.9962199455
 C          3.4320018874       -0.8859363631        0.6157936923
 C          3.4852356572       -1.2391562830       -0.6793809717
 C          4.1222330250       -2.4565707245       -1.3021507353
 C          5.4880582194       -2.8992386035       -0.7622000398
 C          6.4102911251       -1.7537728743       -0.3197860676
 H          7.3825279235       -1.8750620485       -0.8008188045
 H          6.0006735671       -0.7971345684       -0.6485522446
 C          6.6349539976       -1.7188812865        1.1936198048
 H          7.5465753748       -1.1532991611        1.4004108717
 H          6.7957708127       -2.7394999446        1.5473452871
 C          5.5110222147       -1.0788853385        2.0074267358
 H          5.4864326536       -0.0015955401        1.8228201034
 H          5.7415903395       -1.2171187281        3.0663380030
 C          4.1010149179       -1.6289090320        1.7365173461
 H          4.1232061161       -2.7000867728        1.5510115811
 H          3.4905258821       -1.4431982678        2.6244003100
 H          5.3451420199       -3.5845761158        0.0719012154
 H          5.9700138900       -3.4696556299       -1.5580882150
 H          3.4148711609       -3.2872061114       -1.2165171465
 H          4.2085454619       -2.2189600923       -2.3654931150
 O          2.8922112284       -0.4954888193       -1.6545185070
 C          2.1883824638        0.6686510334       -1.3773477876
 O          1.7024344961        1.2061648492       -2.3918135785
 H         -0.3438614871        1.1761804548       -1.3833316114
 C         -0.8250672349        1.3869063647       -0.4388469905
 C         -0.0998878985        2.0071313790        0.5704324033
 C         -0.7320785558        2.2616210928        1.7809920217
 C         -2.0552393205        1.9023196265        1.9738706523
 C         -2.7711464476        1.2794778187        0.9670504621
 C         -2.1462427321        1.0185473975       -0.2453918543
 N         -2.8646421840        0.3557738861       -1.2693793736
 S         -3.1607437870       -1.2725029483       -0.9433233565
 O         -2.1070979318       -1.8456973600       -0.1344372798
 O         -3.3922724903       -1.8918711501       -2.2300676135
 C         -4.6859929179       -1.2382844646       -0.0265577866
 C         -4.7063880714       -1.6506584543        1.2912520861
 C         -5.9049428453       -1.6089049047        1.9867881707
 C         -7.0541395124       -1.1577292190        1.3554653287
 C         -7.0166130988       -0.7485318715        0.0305238261
 C         -5.8221767588       -0.7883420409       -0.6708565244
 H         -5.7473382116       -0.4857235499       -1.7019592754
 H         -7.9123909583       -0.3986987803       -0.4566997514
 H         -7.9847920771       -1.1253863263        1.8996168776
 H         -5.9356956858       -1.9264748912        3.0166460120
 H         -3.7859218595       -1.9879496816        1.7403877190
 H         -2.3956770874        0.4194634185       -2.1637422205
 H         -3.8005171620        0.9944931725        1.1111309536
 H         -2.5327717466        2.1048880655        2.9201418136
 H         -0.1725587788        2.7255072326        2.5799647814
 C          1.3546772955        2.3399959791        0.3581138666
 H          1.7772114993        2.6127066916        1.3379297257
 C          1.5797476534        3.5168333936       -0.5810522068
 C          0.5011019459        4.1331585431       -1.4163465453
 C          1.0316892665        4.8672182021       -0.2240948063
 H          1.6515545695        5.7367516873       -0.3806739899
 H          0.3953019024        4.9262376056        0.6460474818
 H         -0.4934810726        3.7197741480       -1.3584983623
 H          0.7711685952        4.4752097357       -2.4039053208
 H          2.5701160179        3.4960175717       -1.0243428311
 O          2.6249756711        0.6737582826        2.2068646794
