  62
        -98.93920547
 C         -1.4431715681       -1.7045134373       -0.2591407546
 C         -2.6382047229       -1.4223547634        0.4507616029
 C         -3.4392256199       -0.2975324573       -0.0476150836
 C         -3.0247630707        0.3829504640       -1.1308191665
 C         -3.7191066045        1.5524169038       -1.7756699032
 C         -3.7897950406        2.8345887203       -0.9228224175
 C         -5.0955573951        2.9941983107       -0.1343019190
 H         -5.4034623585        4.0411191608       -0.1723009900
 H         -5.8792452967        2.4207454409       -0.6309485477
 C         -5.0347231855        2.6008644957        1.3452275035
 H         -6.0608633803        2.5164745843        1.7096609032
 H         -4.5523289767        3.4029568956        1.9083491134
 C         -4.2880248678        1.3056374676        1.6670594727
 H         -3.2103749354        1.4759607430        1.6057636714
 H         -4.4982117557        1.0418288475        2.7054359748
 C         -4.6389186148        0.1131761922        0.7553011057
 H         -4.9194500994       -0.7491366188        1.3633019671
 H         -5.4741736687        0.3596003859        0.1016773639
 H         -3.6988411376        3.6788509777       -1.6078274106
 H         -2.9339060381        2.8677549847       -0.2491823629
 H         -3.1609935939        1.7596498777       -2.6910477005
 H         -4.7280363474        1.2499156115       -2.0638523804
 O         -1.8900662106        0.0571545203       -1.8057439583
 C         -1.0597643471       -0.9694739473       -1.3805564359
 O         -0.0435778946       -1.1149276215       -2.0871098801
 H          1.8676490926       -2.2136597595       -0.9064376204
 C          1.7967038700       -1.8104935642        0.0908858179
 C          0.6707494682       -2.0601033252        0.8598939005
 C          0.6000950776       -1.5086816612        2.1366671379
 C          1.6275244330       -0.7236739697        2.6259412671
 C          2.7345137561       -0.4467377772        1.8417670784
 C          2.8073623646       -0.9854061200        0.5644011041
 N          3.8948363454       -0.6556905659       -0.2656008892
 S          4.2955735268        0.9675585461       -0.3475546226
 O          4.8367552454        1.1656973790       -1.6745672002
 O          5.1888602752        1.2900209380        0.7391009317
 C          2.7765256369        1.8898858254       -0.1513035198
 C          1.6916090944        1.5893147776       -0.9506676752
 C          0.5287983292        2.3294164759       -0.8051739626
 C          0.4689018602        3.3531853836        0.1270459433
 C          1.5674239240        3.6437522070        0.9210822779
 C          2.7318346622        2.9061581873        0.7824019200
 H          3.6077189417        3.0945666146        1.3818784740
 H          1.5192022117        4.4400764019        1.6462825661
 H         -0.4382535244        3.9278032462        0.2326855888
 H         -0.3242367201        2.0895463284       -1.4206013538
 H          1.7380854171        0.7825559471       -1.6656191035
 H          3.8183527145       -1.0472450937       -1.1936973327
 H          3.5352698520        0.1833225826        2.1942928546
 H          1.5611048425       -0.3089664514        3.6201357548
 H         -0.2832125419       -1.6874379751        2.7334350216
 C         -0.5259930569       -2.7839556159        0.2952114519
 H         -1.0795238182       -3.2437635293        1.1240274962
 C         -0.1876262796       -3.8531784961       -0.7202905618
 C          0.4451282002       -5.1290124439       -0.2531304078
 C         -0.9749079148       -5.1277893930       -0.7311762395
 H         -1.1999493375       -5.5851807201       -1.6830096866
 H         -1.7612277472       -5.2365087777        0.0012567058
 H          1.1974696127       -5.5905074402       -0.8743789612
 H          0.6237585710       -5.2363765522        0.8060546234
 H          0.1188976489       -3.4581858819       -1.6808581089
 O         -3.0149111934       -2.0797204429        1.4562952231
