  62
        -98.94002691
 C         -2.0615471369       -0.7185070317       -0.2040887193
 C         -3.1855524435       -0.7167578695        0.6625447561
 C         -3.8776051159        0.5645770971        0.8285567684
 C         -3.4069020203        1.6587258045        0.2037113509
 C         -3.9810413876        3.0467998286        0.2954755394
 C         -5.1517983112        3.3025718182       -0.6638509938
 C         -6.4639153439        2.6128315148       -0.2879355537
 H         -7.2450180415        3.0489609343       -0.9137336281
 H         -6.7098564740        2.8440228350        0.7488472721
 C         -6.4605702542        1.0913567375       -0.4916892469
 H         -5.6299349284        0.8134039707       -1.1446222240
 H         -7.3802306462        0.7896161312       -0.9979013694
 C         -6.3667045975        0.2791620836        0.7999436910
 H         -6.3359398192       -0.7809432940        0.5363147033
 H         -7.2588508109        0.4502794057        1.4062338695
 C         -5.1297698203        0.5907735332        1.6526657507
 H         -5.0378893953       -0.1813138071        2.4202139184
 H         -5.2428078753        1.5585085201        2.1406913177
 H         -4.8521938034        2.9950775468       -1.6684543916
 H         -5.3254366301        4.3809488684       -0.6845713538
 H         -3.1706481506        3.7341384118        0.0428494733
 H         -4.2979779309        3.2446079757        1.3199024960
 O         -2.3089460440        1.6257874060       -0.5966236057
 C         -1.6191676781        0.4430271640       -0.8387605095
 O         -0.6668427995        0.5788937132       -1.6307525427
 O         -3.5944607383       -1.7440613830        1.2668543653
 C         -1.3360380110       -2.0426888695       -0.3835921818
 C         -0.1165156460       -2.0646521159        0.5072633745
 C         -0.1975908639       -2.6699614582        1.7580027380
 C          0.8929041624       -2.6845897424        2.6072785841
 C          2.0833864276       -2.0941186614        2.2252405653
 C          2.1750727382       -1.4837272543        0.9787787051
 C          1.0792940164       -1.4708241866        0.1267625386
 H          1.1591045839       -0.9634737622       -0.8213949128
 N          3.3900138062       -0.9110107893        0.5632145795
 S          3.3558210291        0.5252248256       -0.3277366598
 O          2.4717202971        1.4777801448        0.3061974204
 O          3.1132340748        0.2110322196       -1.7116084775
 C          5.0540632399        1.0395009528       -0.1299818742
 C          5.3811241829        1.9413356062        0.8649087490
 C          6.7080045506        2.3070930080        1.0298579781
 C          7.6811487577        1.7652515765        0.2037624184
 C          7.3380482564        0.8618232623       -0.7911715568
 C          6.0130915058        0.4932634870       -0.9618864265
 H          5.6962715398       -0.1968328830       -1.7262776194
 H          8.0964740913        0.4448780901       -1.4338949357
 H          8.7128362115        2.0512136418        0.3343858506
 H          6.9766897656        3.0119607441        1.8001280270
 H          4.5893927701        2.3434597498        1.4767240364
 H          4.0596321650       -0.8429072421        1.3185935460
 H          2.9378138310       -2.1044783006        2.8850164542
 H          0.8148754122       -3.1559750744        3.5752543679
 H         -1.1346589056       -3.1132527043        2.0629034221
 H         -2.0348840252       -2.8005430483       -0.0021705560
 C         -1.0144332638       -2.3755487305       -1.8249856434
 C         -0.7135230405       -3.7986228739       -2.1858963235
 C         -1.9993775075       -3.1689716055       -2.6282147881
 H         -2.1249200896       -2.9255843462       -3.6725925624
 H         -2.9121880588       -3.4754728617       -2.1383080206
 H          0.0481718305       -3.9901204907       -2.9259502295
 H         -0.7549235472       -4.5322873814       -1.3949795884
 H         -0.4677726808       -1.5975436652       -2.3421064940
