  62
        -98.94019084
 C         -2.6035294696       -1.2747897804        0.1570025194
 C         -3.3398311297       -0.4832949001        1.0775471291
 C         -4.1902709597        0.5677540197        0.5061205587
 C         -4.2538221295        0.7033065793       -0.8305172814
 C         -5.0268702895        1.7691863491       -1.5503148717
 C         -4.1552148095        3.0078335190       -1.8018044220
 C         -3.4032977596        3.4963953794       -0.5633869821
 H         -2.6688233196        2.7422248695       -0.2705295518
 H         -2.8468327296        4.3903749793       -0.8532258323
 C         -4.3023277697        3.8209840197        0.6379718477
 H         -3.9796454398        4.7708405599        1.0693166675
 H         -5.3327591397        3.9500420196        0.3049412876
 C         -4.2594416698        2.7840936101        1.7622015580
 H         -3.2205591199        2.5817835902        2.0351231582
 H         -4.7506981099        3.2135488003        2.6392831779
 C         -4.9467951598        1.4459067000        1.4622086184
 H         -5.9616502197        1.6249996599        1.1016502882
 H         -5.0076261799        0.8854328203        2.3995859885
 H         -3.4213989894        2.7635220188       -2.5736017819
 H         -4.7934630594        3.8076757389       -2.1816105623
 H         -5.3579498894        1.3674210888       -2.5094671717
 H         -5.8999286695        2.0394286093       -0.9596433819
 O         -3.5662342394       -0.0950401809       -1.6840396910
 C         -2.7030534695       -1.0827631008       -1.2212393107
 O         -2.1113397394       -1.6889350311       -2.1348582304
 O         -3.2852875298       -0.6526566998        2.3247125291
 C         -1.6859390597       -2.3260240602        0.7558297598
 C         -0.2998815697       -1.7689750701        0.9643202398
 C          0.3620798002       -1.9235972698        2.1763048399
 C          1.6341154102       -1.4072875497        2.3530983999
 C          2.2673037003       -0.7221522600        1.3316519197
 C          1.6156954104       -0.5641510104        0.1150257696
 C          0.3432537204       -1.0898690004       -0.0611661804
 H         -0.1549501795       -0.9754676607       -1.0132852504
 N          2.2305952605        0.1517733393       -0.9238194705
 S          3.8454577605       -0.1315363507       -1.2740723703
 O          4.0130692107        0.2860771888       -2.6484612404
 O          4.2257504505       -1.4903755307       -0.9647377298
 C          4.7120742504        1.0051415696       -0.2120611905
 C          4.3224580804        2.3302005296       -0.2223126510
 C          4.9922915603        3.2309551998        0.5900431489
 C          6.0372034702        2.7950190901        1.3913061991
 C          6.4189158602        1.4622559001        1.3872767995
 C          5.7518370003        0.5555551498        0.5779639597
 H          6.0094451503       -0.4911774302        0.5475183201
 H          7.2314092202        1.1254994203        2.0108090897
 H          6.5563326901        3.4984773803        2.0229191289
 H          4.6969217703        4.2678565298        0.5963917485
 H          3.5065095604        2.6288650094       -0.8593048611
 H          1.6765659306        0.2003137591       -1.7665086306
 H          3.2564310202       -0.3159787099        1.4653097797
 H          2.1371440901       -1.5340166094        3.2994339000
 H         -0.1317298699       -2.4411413295        2.9854984000
 H         -2.1097195298       -2.5324878099        1.7513620098
 C         -1.6841486896       -3.6378869404       -0.0167479798
 C         -0.5144370995       -4.1344719407       -0.8074133795
 C         -0.8812325196       -4.8028833803        0.4816183906
 H         -1.3218503596       -5.7876510203        0.4490538209
 H         -0.2337878997       -4.6341384900        1.3288392206
 H         -0.7199045794       -4.6418695509       -1.7377657794
 H          0.3822518605       -3.5343137906       -0.8347122196
 H         -2.6635699995       -3.8641073206       -0.4262151398
