  62
        -98.94259734
 C          1.4553473750        0.9411384757       -0.4573348403
 C          2.8077500642        1.3362915210       -0.6179639864
 C          3.8005438664        0.2559840846       -0.6250114893
 C          3.3987964552       -1.0185757830       -0.4718408149
 C          4.2849038875       -2.2346524614       -0.4882641039
 C          4.9479665632       -2.5428063174        0.8611119446
 C          6.0731648473       -1.5895575604        1.2655606134
 H          6.5896529578       -2.0443569087        2.1132555635
 H          6.7932339234       -1.5117697469        0.4502970435
 C          5.5991196672       -0.1871181515        1.6719395190
 H          6.1017940605        0.1146495320        2.5936888547
 H          4.5280127675       -0.2123661765        1.8855152440
 C          5.8703470472        0.9002072621        0.6320995894
 H          5.4621842531        1.8425422453        1.0065803294
 H          6.9480381449        1.0272771233        0.5069056525
 C          5.2475818673        0.6286538472       -0.7436148515
 H          5.3083916686        1.5462622437       -1.3341912473
 H          5.8018165057       -0.1557363830       -1.2589523487
 H          4.1779297794       -2.5467133797        1.6358922471
 H          5.3617079743       -3.5519153794        0.7980139068
 H          5.0525618707       -2.1183906077       -1.2539194000
 H          3.6479511582       -3.0792954102       -0.7590322913
 O          2.0954923035       -1.3560397391       -0.2944217300
 C          1.0918286255       -0.3921310766       -0.2555421010
 O         -0.0397308457       -0.8579480498       -0.0394587623
 O          3.1687546016        2.5364361466       -0.7493319762
 C          0.3985643811        2.0311226018       -0.4507576307
 C         -0.5698870640        1.8095822236        0.6820814133
 C         -0.1096754023        1.9317673244        1.9907414145
 C         -0.9541713619        1.7079419914        3.0603290204
 C         -2.2745500749        1.3527607021        2.8474376237
 C         -2.7443909824        1.2320784525        1.5452445943
 C         -1.8960810835        1.4676631839        0.4723536047
 H         -2.2834985073        1.3601041013       -0.5261464461
 N         -4.0827700063        0.8950019107        1.3046084578
 S         -4.5526832128        0.0427483642       -0.0488402395
 O         -4.4910685255        0.8893840510       -1.2148444552
 O         -5.8731508021       -0.4453906188        0.2950647021
 C         -3.4468656797       -1.3437751350       -0.2258739054
 C         -3.2142901224       -2.1516838174        0.8679402781
 C         -2.3922037062       -3.2554718901        0.7209074190
 C         -1.8244733459       -3.5350722336       -0.5115119551
 C         -2.0727870613       -2.7173297775       -1.6008121631
 C         -2.8907779983       -1.6093775959       -1.4583902031
 H         -3.0991677906       -0.9407809691       -2.2784872932
 H         -1.6231970453       -2.9312630114       -2.5579772871
 H         -1.1769229705       -4.3909440443       -0.6218643299
 H         -2.1892647877       -3.8904975192        1.5686768899
 H         -3.6711788104       -1.9137187377        1.8151146234
 H         -4.6157499165        0.6325247289        2.1199621121
 H         -2.9359245233        1.1706608367        3.6807688795
 H         -0.5822285596        1.8037960135        4.0693906447
 H          0.9259346279        2.1963177375        2.1571524781
 H          0.9590551414        2.9588686716       -0.2463109121
 C         -0.2929606822        2.2288364922       -1.7912233393
 C          0.4361765557        1.9986577137       -3.0799464729
 C         -0.6762822618        1.0811515383       -2.6744311734
 H         -1.6152655420        1.1427200584       -3.2060863327
 H         -0.4293808851        0.0864447819       -2.3370801058
 H          0.2677074940        2.6863921777       -3.8949698080
 H          1.4495874300        1.6291701270       -3.0218016122
 H         -0.9783515389        3.0714038372       -1.7712479295
