  62
        -98.93242281
 C          1.8043311851        1.2706167498        0.4129022741
 C          2.3356951351        0.4471555278       -0.6072497621
 C          3.5553677599       -0.3184955235       -0.2699286686
 C          4.0787249656       -0.2141177810        0.9637495674
 C          5.3036962772       -0.8834677396        1.5337606316
 C          6.5515615511       -0.9115792300        0.6378481384
 C          6.8898028113       -2.3069021621        0.1103162894
 H          7.9542161553       -2.3403389701       -0.1325083525
 H          6.7151683708       -3.0321032140        0.9079456215
 C          6.1181785802       -2.7332104715       -1.1374290170
 H          6.4816935144       -2.1674411071       -1.9980146723
 H          6.3443537516       -3.7860032385       -1.3223995350
 C          4.5993379620       -2.5652510645       -1.0575190051
 H          4.2328036641       -2.8617538941       -0.0752473823
 H          4.1496473345       -3.2473534530       -1.7824306802
 C          4.1177880563       -1.1459939521       -1.3933873039
 H          4.9228588566       -0.5842833297       -1.8764859917
 H          3.3068039186       -1.1992206619       -2.1268667363
 H          6.4303352622       -0.2134497113       -0.1890274415
 H          7.3968406806       -0.5631356023        1.2335420158
 H          5.5206156753       -0.3385544442        2.4554853925
 H          5.0371338776       -1.9010284129        1.8304586051
 O          3.4984901275        0.5503656019        1.9339430831
 C          2.3563046747        1.2913522934        1.6948532710
 O          1.9293012770        1.9106127736        2.6901433062
 H         -0.5101624321       -0.1227568196        1.1232773025
 C         -0.9465423385        0.1373209384        0.1660245741
 C         -0.5059780464        1.2835996181       -0.4855814917
 C         -1.0742394527        1.6093699468       -1.7091726832
 C         -2.0359090790        0.7895757615       -2.2746701086
 C         -2.4570147593       -0.3603907539       -1.6337648553
 C         -1.9053588599       -0.6874871795       -0.4010130126
 N         -2.3344950856       -1.8465299728        0.2660547650
 S         -3.9684512478       -2.2002024774        0.2817750593
 O         -4.1758631416       -2.9662343894        1.4911934467
 O         -4.3374844666       -2.8568283801       -0.9477321427
 C         -4.7962749946       -0.6232444274        0.3928579550
 C         -4.5160106112        0.1852005089        1.4766705531
 C         -5.1307354767        1.4233802659        1.5659347489
 C         -6.0115365503        1.8299118440        0.5750436817
 C         -6.2870263813        1.0043398099       -0.5036345957
 C         -5.6734195701       -0.2344852685       -0.5989231759
 H         -5.8565130958       -0.9066972968       -1.4213244224
 H         -6.9737989904        1.3218893794       -1.2715046636
 H         -6.4857949105        2.7959391996        0.6463796288
 H         -4.9177927242        2.0661872959        2.4050339843
 H         -3.8304231944       -0.1612458338        2.2336286246
 H         -1.9143213413       -1.9839472173        1.1727600945
 H         -3.1870743504       -1.0198804319       -2.0742638940
 H         -2.4579596195        1.0460196254       -3.2342853220
 H         -0.7421692323        2.4880322178       -2.2364737485
 C          0.5563478328        2.1101080274        0.1972114967
 H          0.1964333115        2.3414705292        1.2135065099
 C          0.8129063349        3.4472005278       -0.4817073750
 C          2.1298823167        4.1470805735       -0.3309925675
 C          1.7247979141        3.5908835322       -1.6613883388
 H          1.4466405375        4.2848144929       -2.4412413199
 H          2.2185787520        2.7033767430       -2.0232165138
 H          2.9065879133        3.6392256197        0.2227272658
 H          2.1290675166        5.2183599151       -0.1963418035
 H         -0.0685564377        4.0807169335       -0.4680246118
 O          1.8291791572        0.3422520145       -1.7535204419
