  62
        -98.94786193
 C         -1.0042604810       -0.9675294677        0.7177236527
 C         -1.6550910635       -0.8696805603       -0.5354316255
 C         -2.3349992964        0.4036129652       -0.8013090693
 C         -2.2485418652        1.4076723735        0.0888305157
 C         -2.8454445528        2.7809756267       -0.0634367504
 C         -4.3233777310        2.8720434211        0.3410232670
 C         -5.3067961938        2.2158348477       -0.6286132515
 H         -6.3076589759        2.5423499087       -0.3392796179
 H         -5.1219927098        2.5866188993       -1.6373459770
 C         -5.2685169941        0.6813277996       -0.6275262173
 H         -6.2882766609        0.2914833567       -0.5948600858
 H         -4.7611061128        0.3299077393        0.2736504849
 C         -4.5868163694        0.0644463870       -1.8489455268
 H         -4.5817941241       -1.0217472386       -1.7279904457
 H         -5.1602961514        0.3004822450       -2.7481447521
 C         -3.1377702582        0.5228104734       -2.0606481591
 H         -2.6731498798       -0.1249865087       -2.8085395933
 H         -3.1144631431        1.5478940643       -2.4313314269
 H         -4.5745286331        3.9325477187        0.4164207442
 H         -4.4407796225        2.4302282761        1.3330449743
 H         -2.2705105387        3.4450712621        0.5861065394
 H         -2.7238320683        3.1173961900       -1.0939985825
 O         -1.5635585060        1.2935792765        1.2582995113
 C         -0.9333685713        0.1070062171        1.6025191215
 O         -0.3464892564        0.1383555875        2.7032462331
 H          1.4437870338       -0.3783891657        0.2573604282
 C          1.6439424681       -1.3171864665       -0.2382400000
 C          0.8677415909       -2.4257305357        0.0758219824
 C          1.1471953751       -3.6311847251       -0.5530737765
 C          2.1567129359       -3.7054998458       -1.4981473168
 C          2.8920000239       -2.5868340832       -1.8445453079
 C          2.6293493828       -1.3786344082       -1.2077534568
 N          3.3568117964       -0.2183538770       -1.5112020484
 S          2.6044484516        1.2748476122       -1.4398941452
 O          1.2224290684        1.2128283828       -1.8564229662
 O          3.4609836857        2.1386538508       -2.2275687403
 C          2.7249281727        1.7554876937        0.2690056867
 C          3.9042182238        1.5226052803        0.9483891587
 C          3.9990881997        1.9159586145        2.2733715735
 C          2.9224299921        2.5339365922        2.8913914465
 C          1.7484543914        2.7678618884        2.1931137215
 C          1.6484082818        2.3780179054        0.8676053059
 H          0.7462220629        2.5240850080        0.2931133895
 H          0.9049986741        3.2348852565        2.6756276474
 H          2.9940164159        2.8318949745        3.9254880127
 H          4.9093418411        1.7352538017        2.8222047784
 H          4.7169452047        1.0347127622        0.4367050779
 H          3.9844841170       -0.2940932234       -2.2982980364
 H          3.6584833871       -2.6424970433       -2.6023588757
 H          2.3610555755       -4.6460868749       -1.9869256586
 H          0.5673184626       -4.5079680649       -0.3158965772
 C         -0.2425062913       -2.2306451516        1.0807356254
 H          0.2140821507       -2.0397916758        2.0631170137
 C         -1.1784127408       -3.4145625400        1.1947385958
 C         -0.8409167498       -4.5570601317        2.1037029772
 C         -1.9444249622       -3.6109404320        2.4673282628
 H         -2.9651369668       -3.9574498708        2.4064474078
 H         -1.7709302683       -2.9021557906        3.2641399064
 H         -1.1066426658       -5.5570641122        1.7957692193
 H          0.0810998368       -4.4963146672        2.6616836726
 H         -1.6898907427       -3.6313065035        0.2641357490
 O         -1.6720941194       -1.7957401331       -1.3882085570
