  62
        -98.93372163
 C         -2.5566808510       -1.1425375995        0.1299117590
 C         -3.2197661284       -0.3493965610        1.1015128611
 C         -4.2548079187        0.5655795975        0.6066505628
 C         -4.5091227782        0.6128325596       -0.7136387209
 C         -5.4995092767        1.5333645909       -1.3646918566
 C         -4.8390998193        2.8537297723       -1.7852772046
 C         -4.0054392468        3.5064111788       -0.6825871340
 H         -3.1459563860        2.8693501104       -0.4608416712
 H         -3.6147671645        4.4446010967       -1.0824662939
 C         -4.7765107280        3.7860109025        0.6150587528
 H         -5.8494662262        3.7630506373        0.4212345790
 H         -4.5308205884        4.7930655999        0.9587289803
 C         -4.4500550129        2.8315364799        1.7652508819
 H         -3.3668372952        2.7791830128        1.9022666979
 H         -4.8755454613        3.2465323350        2.6829564818
 C         -4.9864184598        1.4018840423        1.6187167756
 H         -4.8518286868        0.8966007670        2.5796747828
 H         -6.0545136641        1.4311985979        1.3935916739
 H         -5.6213111790        3.5429069027       -2.1085779632
 H         -4.1847665852        2.6572542696       -2.6375937485
 H         -5.8972674533        1.0377394828       -2.2517702810
 H         -6.3160566568        1.7275410937       -0.6718931546
 O         -3.8483682206       -0.1502515242       -1.6170366585
 C         -2.8535325623       -1.0421704791       -1.2310077605
 O         -2.3412893330       -1.6539725167       -2.1825259182
 H          0.2243790305       -0.4198541420        1.7028261169
 C          0.6159090494       -0.8109144021        0.7716232060
 C         -0.1423717167       -1.7340298218        0.0564052030
 C          0.3767822397       -2.2085440476       -1.1426371968
 C          1.6125119225       -1.7769984649       -1.5943572343
 C          2.3581721376       -0.8604990015       -0.8768186050
 C          1.8492621818       -0.3682056383        0.3173397397
 N          2.5844431131        0.5826408737        1.0470988522
 S          4.1945642594        0.2489037733        1.3888804466
 O          4.4293439751       -1.1732204096        1.4844646353
 O          4.4999209909        1.0319777401        2.5662176607
 C          5.0798933983        0.9223665963       -0.0012143962
 C          5.9339906566        0.1165661563       -0.7283679200
 C          6.6200266623        0.6636596800       -1.8015858511
 C          6.4416247161        1.9997933896       -2.1258067420
 C          5.5830460652        2.7965738595       -1.3829134730
 C          4.8950683421        2.2561336688       -0.3083437884
 H          4.2221423028        2.8417949249        0.2955737558
 H          5.4473980151        3.8353142721       -1.6378664067
 H          6.9750893779        2.4230738083       -2.9622110580
 H          7.2886381892        0.0462362826       -2.3797005978
 H          6.0368317502       -0.9182096784       -0.4426628582
 H          2.1081508946        0.9179662850        1.8721057235
 H          3.3185347625       -0.5239150479       -1.2313523196
 H          1.9962663698       -2.1591997593       -2.5281327664
 H         -0.1923707214       -2.8901007909       -1.7483773440
 C         -1.4849825597       -2.0991413736        0.6393844093
 H         -1.4234200992       -1.8608887560        1.7132030412
 C         -1.9451665850       -3.5513141555        0.5952037299
 C         -2.1302292579       -4.3875577735       -0.6340078364
 C         -1.0285595790       -4.7076226555        0.3304329406
 H         -1.1289310022       -5.5890589380        0.9462892192
 H         -0.0128079794       -4.4884738159        0.0404867348
 H         -1.9003078678       -3.9552946821       -1.5929791176
 H         -2.9904990525       -5.0418751942       -0.6592797217
 H         -2.6954912304       -3.7122954297        1.3661833888
 O         -2.9571453986       -0.4062694349        2.3348180234
