  62
        -98.94117208
 C         -1.9552073592       -0.9089109134       -0.2156324306
 C         -2.5565967809       -0.3017093002        0.9173976395
 C         -2.8636994003        1.1288400328        0.8151516282
 C         -2.5238693507        1.7897155373       -0.3058938787
 C         -2.8021704627        3.2419357398       -0.5646423319
 C         -4.1552201040        3.4348843508       -1.2638534419
 C         -5.3065958239        2.6819434649       -0.5972426785
 H         -6.2144864803        2.9140607411       -1.1580253077
 H         -5.1323658497        1.6081023804       -0.6961572416
 C         -5.5170890691        3.0266605578        0.8837071693
 H         -5.0192695116        3.9679381973        1.1188202380
 H         -6.5849009225        3.1702126131        1.0612233641
 C         -5.0446237872        1.9472004987        1.8593369779
 H         -5.4662120797        0.9815964792        1.5694880674
 H         -5.4346638001        2.1908688655        2.8510396741
 C         -3.5248284318        1.7868520123        1.9938199911
 H         -3.0673636051        2.7573017651        2.1977176690
 H         -3.3324033291        1.1305656132        2.8476135701
 H         -4.3811654088        4.5024551946       -1.2891505986
 H         -4.0646261105        3.0812956207       -2.2935106942
 H         -2.7881387759        3.7805604242        0.3810742188
 H         -2.0092410060        3.6321390676       -1.2053309999
 O         -1.9261867599        1.1866523593       -1.3626314383
 C         -1.6236969597       -0.1694257469       -1.3517216459
 O         -1.0885891573       -0.5610506613       -2.4081020423
 H          0.7000226220       -1.1579203308       -0.8174396709
 C          0.8353854327       -1.8314390083        0.0156740320
 C         -0.2390437212       -2.5521744254        0.5160322674
 C         -0.0237868358       -3.4208019572        1.5798001009
 C          1.2346953494       -3.5518330554        2.1388486324
 C          2.2949419234       -2.8020901876        1.6637189947
 C          2.0907764110       -1.9349605411        0.5959095570
 N          3.1428887117       -1.1588898784        0.0851010248
 S          2.7886681159        0.4176302074       -0.4153741068
 O          1.7829689560        0.9966171798        0.4472646323
 O          2.5089166416        0.4053377045       -1.8286220171
 C          4.3667986729        1.2024365973       -0.1335158660
 C          4.5943566762        1.8484093537        1.0670080723
 C          5.8348194441        2.4236378176        1.2946241596
 C          6.8226286651        2.3405138014        0.3247500394
 C          6.5793066943        1.6897632099       -0.8757436733
 C          5.3409943966        1.1130446463       -1.1099352024
 H          5.1008475922        0.6049059468       -2.0293752404
 H          7.3481012973        1.6297468948       -1.6289802941
 H          7.7870579292        2.7884893294        0.5044760183
 H          6.0249651093        2.9331813888        2.2254460838
 H          3.7927751881        1.8950408842        1.7867988744
 H          3.9745539412       -1.1925238095        0.6591258258
 H          3.2726896141       -2.8838076285        2.1136031008
 H          1.3873872903       -4.2285382653        2.9656820879
 H         -0.8561323403       -3.9791859097        1.9814373784
 C         -1.6191957919       -2.3834410521       -0.0770599161
 H         -2.3404663436       -2.7800434274        0.6518837641
 C         -1.7407472441       -3.1879453556       -1.3554821240
 C         -2.0027167984       -4.6608170829       -1.2689520821
 C         -3.0758461849       -3.7358801865       -1.7574929994
 H         -3.3321460154       -3.7421900706       -2.8060330278
 H         -3.9134011915       -3.5364254602       -1.1048640682
 H         -1.5188888917       -5.3095629970       -1.9825541308
 H         -2.1178290195       -5.0936196333       -0.2870304640
 H         -1.0889919041       -2.8361793901       -2.1446583805
 O         -2.8325112823       -0.9395579784        1.9703060227
