  62
        -98.93515329
 C          1.9512885364        0.7326497443        0.7481654570
 C          3.3591350791        0.8532197756        0.9290128470
 C          4.1571607002       -0.3651864444        0.7528773139
 C          3.5382010116       -1.5458073103        0.5859496266
 C          4.2006682125       -2.8845086205        0.4096768381
 C          4.6451815339       -3.1775524030       -1.0298275294
 C          5.8615127157       -2.3846920124       -1.5102844811
 H          6.6703423856       -2.4885862087       -0.7863677142
 H          6.1970391222       -2.8462807569       -2.4411760139
 C          5.5870047687       -0.8965363190       -1.7689621938
 H          4.5098452087       -0.7333294223       -1.8494202722
 H          6.0263979704       -0.6064452990       -2.7260735579
 C          6.1517736564        0.0467076912       -0.7065172559
 H          5.8692441702        1.0688650872       -0.9715403835
 H          7.2424637186       -0.0110699349       -0.7078880085
 C          5.6494657197       -0.2326262300        0.7159674882
 H          6.1197759903       -1.1331649992        1.1105487879
 H          5.9236710012        0.6129170886        1.3514340299
 H          4.8877359833       -4.2413520969       -1.0847932908
 H          3.8029136815       -2.9948684506       -1.7013254273
 H          5.0595235618       -2.9580684845        1.0777881708
 H          3.4658431694       -3.6369074012        0.7041797331
 O          2.1866917787       -1.6505767944        0.6078811917
 C          1.3604897162       -0.5342828832        0.7121246503
 O          0.1563263235       -0.8457794271        0.7830156533
 O          3.9354316085        1.9295194683        1.2395491582
 C          1.1266831192        2.0177937780        0.8279937926
 C         -0.3525781688        1.8656135234        0.6196685016
 C         -1.2503536161        2.4407326371        1.5113414440
 C         -2.6150009474        2.3722896454        1.2889168570
 C         -3.1139687699        1.7033612744        0.1867135706
 C         -2.2259752931        1.0978312343       -0.6935558367
 C         -0.8578484440        1.2104502052       -0.4942003952
 H         -0.1820452060        0.7317845894       -1.1888952257
 N         -2.7128833704        0.3625956883       -1.7857040510
 S         -4.1316758287       -0.5020594534       -1.6278508547
 O         -4.0065683785       -1.5975042508       -2.5661623874
 O         -5.2505887567        0.3813042525       -1.8589943590
 C         -4.2338535431       -1.1373478660        0.0404067119
 C         -3.1079074343       -1.5932058452        0.6958042104
 C         -3.2477696370       -2.1105368699        1.9748800321
 C         -4.4971519512       -2.1745953629        2.5704525176
 C         -5.6185811565       -1.7165914100        1.8959668989
 C         -5.4867250478       -1.1919260831        0.6210451352
 H         -6.3289449055       -0.8130981861        0.0646994951
 H         -6.5911470235       -1.7635907359        2.3588413477
 H         -4.5953250118       -2.5795088118        3.5654058165
 H         -2.3666826528       -2.4513191977        2.4948603636
 H         -2.1295425258       -1.5248190454        0.2475674222
 H         -2.0075603734       -0.1845427393       -2.2562416022
 H         -4.1735539072        1.6354288428       -0.0017215564
 H         -3.2973978299        2.8350353394        1.9851137633
 H         -0.8722678643        2.9457489424        2.3886168790
 H          1.2910664756        2.4226393627        1.8414989733
 C          1.6786519883        3.0874090448       -0.1239265168
 C          1.1420779116        3.3876784779       -1.4882876071
 C          0.9324932938        4.3635168654       -0.3702836783
 H          1.4860580196        5.2902695895       -0.3763522712
 H         -0.0667609412        4.4479869437        0.0302720421
 H          1.8554757388        3.6335067411       -2.2616527818
 H          0.2777958444        2.8524633945       -1.8484028545
 H          2.7501654542        3.1877003973       -0.0074853292
