  62
        -98.93844270
 C          2.0936549816        0.8427759387       -0.4852251505
 C          3.1280461335        1.1504784972        0.4276902393
 C          4.4138382705        0.4501643364        0.2443759898
 C          4.5291123197       -0.4341807103       -0.7640100079
 C          5.7130700548       -1.2952618956       -1.1152119034
 C          5.8730838485       -2.4950636744       -0.1673475560
 C          5.6919770595       -2.1733660777        1.3138454687
 H          5.7187561280       -3.1178366648        1.8638405345
 H          4.7025412270       -1.7386139070        1.4673466706
 C          6.7516629229       -1.2528368564        1.9147204583
 H          7.7352712241       -1.7120601251        1.7930657006
 H          6.5491886480       -1.1818890216        2.9864981497
 C          6.8047668693        0.1669479488        1.3467131865
 H          7.3026655078        0.1846202047        0.3809696928
 H          7.4214725818        0.7649861879        2.0240835826
 C          5.4532549186        0.8685301364        1.2565249410
 H          5.6270225398        1.9362147273        1.0753442059
 H          4.9589548794        0.8200596494        2.2334582051
 H          6.8591208544       -2.9337086310       -0.3294647171
 H          5.1226727117       -3.2416447395       -0.4391197558
 H          6.6180477668       -0.6954830708       -1.1380418659
 H          5.5380873951       -1.6721357171       -2.1253564482
 O          3.5010281499       -0.7023004958       -1.6191716338
 C          2.2681096715       -0.0859513507       -1.5100491241
 O          1.4384192647       -0.4387963564       -2.3700683043
 O          2.9870269983        1.9759013904        1.3702919580
 C          0.7491070952        1.5306597454       -0.3226135003
 C         -0.2886510077        0.4902125961        0.0165244122
 C         -0.1920893040       -0.1710711142        1.2388457187
 C         -1.0940237695       -1.1589588930        1.5830378445
 C         -2.1146429797       -1.5099122248        0.7160987432
 C         -2.2240060231       -0.8520725806       -0.5011372683
 C         -1.3217853400        0.1491820044       -0.8409651660
 H         -1.4160437047        0.6419473445       -1.7954922650
 N         -3.2617337534       -1.1973256355       -1.3806931716
 S         -4.7948016835       -1.4218367767       -0.7552767284
 O         -4.9013382788       -2.7383419499       -0.1768592753
 O         -5.6959680705       -1.1403755086       -1.8506796654
 C         -4.9586165581       -0.1866834505        0.5226613930
 C         -5.1677035564       -0.5712660269        1.8311552152
 C         -5.2597457742        0.4048877464        2.8105636721
 C         -5.1383620333        1.7418522554        2.4661261125
 C         -4.9322253717        2.1127869147        1.1459755165
 C         -4.8404427394        1.1413754869        0.1628550834
 H         -4.6861061701        1.3975089885       -0.8729102680
 H         -4.8401188123        3.1536847336        0.8803950526
 H         -5.2052860534        2.5004365088        3.2299460455
 H         -5.4220366869        0.1194245552        3.8374424007
 H         -5.2540600556       -1.6219570858        2.0555834339
 H         -3.2749920435       -0.6660623909       -2.2380937112
 H         -2.8157466154       -2.2920407621        0.9580166330
 H         -1.0018647380       -1.6656039910        2.5316918893
 H          0.6105015966        0.0975264940        1.9118742611
 H          0.8665722592        2.1920997842        0.5471998053
 C          0.4136551006        2.3728963329       -1.5343332723
 C         -0.6022474106        3.4687782985       -1.4178837442
 C          0.8501377862        3.8056250659       -1.5685716473
 H          1.1915812759        4.2169143053       -2.5067424745
 H          1.3809346130        4.1851771921       -0.7078828848
 H         -1.2602700023        3.6552657397       -2.2531228183
 H         -1.0583401121        3.6218541984       -0.4518173175
 H          0.4656104670        1.8175534272       -2.4638373177
