  62
        -98.94165922
 C          2.3757516987        1.2328884005        0.1771161086
 C          3.2962536891        0.5558150309        1.0171049986
 C          4.1019277489       -0.4935478693        0.3837763988
 C          3.9183209085       -0.7794604798       -0.9177818710
 C          4.6844108884       -1.7979339701       -1.7178746508
 C          4.1504041785       -3.2307340001       -1.5857471500
 C          4.4276805690       -3.9073423695       -0.2426410498
 H          4.1956537791       -4.9672518996       -0.3640205793
 H          5.4904049591       -3.8306428993       -0.0108612502
 C          3.6022390994       -3.3527365991        0.9268443302
 H          2.7547852592       -2.7838786593        0.5354849402
 H          3.1880501696       -4.1816071189        1.5056414807
 C          4.3896281396       -2.4706088586        1.8961609796
 H          3.7012215698       -2.1016885683        2.6608818396
 H          5.1560718498       -3.0685356383        2.3939326996
 C          5.0644702793       -1.2580180088        1.2418455688
 H          5.9252422691       -1.5778087390        0.6550755387
 H          5.4079932595       -0.5888352884        2.0344661985
 H          3.0739891485       -3.2218805703       -1.7748464997
 H          4.6197805483       -3.8265042804       -2.3719883899
 H          5.7359979585       -1.7727096199       -1.4303322911
 H          4.6015629080       -1.4958597406       -2.7641793809
 O          2.9956880882       -0.1377830202       -1.6813755010
 C          2.1860115983        0.8643171699       -1.1560948411
 O          1.3673690480        1.3249018595       -1.9723526411
 O          3.4368259994        0.8166708715        2.2418511685
 C          1.5243671988        2.3233915307        0.8033588384
 C          0.0724364187        2.1064301104        0.4580591390
 C         -0.7107692515        3.0321663001       -0.2170916711
 C         -2.0317669616        2.7450417298       -0.5146358406
 C         -2.6002675714        1.5406494499       -0.1440253699
 C         -1.8242028911        0.6044294703        0.5271562802
 C         -0.5038648110        0.8972312605        0.8289528697
 H          0.1031674192        0.1641952908        1.3477346498
 N         -2.3922418109       -0.6203636496        0.9201986310
 S         -3.2700604312       -1.4994450101       -0.2096483584
 O         -3.2037946209       -2.8691062199        0.2539776222
 O         -2.8121394316       -1.2551122107       -1.5575524786
 C         -4.9339828212       -0.8992984902       -0.0047054581
 C         -5.4939528907       -0.9517061597        1.2567932021
 C         -6.7882226107       -0.4897147997        1.4337805723
 C         -7.4976141311        0.0111374698        0.3522495323
 C         -6.9228937615        0.0526374793       -0.9087643079
 C         -5.6279055415       -0.4069665807       -1.0924647181
 H         -5.1372166618       -0.3886337211       -2.0528302383
 H         -7.4757904118        0.4416505489       -1.7486349779
 H         -8.5044916011        0.3712488097        0.4927725525
 H         -7.2385649204       -0.5207600593        2.4128087325
 H         -4.9099263805       -1.3511935793        2.0688861521
 H         -1.7508851607       -1.2237736093        1.4146178710
 H         -3.6262173015        1.3123825998       -0.3820450995
 H         -2.6273105519        3.4702842996       -1.0479053707
 H         -0.2801541117        3.9669378200       -0.5357057417
 H          1.6385710892        2.1636375912        1.8891473885
 C          2.0108297486        3.7375952306        0.5261988177
 C          3.4590179685        4.0158433406        0.2584127171
 C          2.4486018982        4.1889551501       -0.8337091526
 H          2.1991061680        5.1931565099       -1.1441118130
 H          2.4218876380        3.4661703297       -1.6337318323
 H          3.9018357786        4.8975052309        0.6968094066
 H          4.1298789786        3.1705684607        0.2047101473
 H          1.4886923888        4.4688999108        1.1355578575
