  62
        -98.93972416
 C          2.6979710431        0.6907613716        0.1600145018
 C          2.8351975137       -0.3472167730        1.1118560263
 C          3.2897079738       -1.6429236345        0.5909640182
 C          3.5448515129       -1.7689543596       -0.7245018469
 C          3.9533578448       -3.0458725865       -1.3990592189
 C          2.7283401968       -3.8219270540       -1.9032673989
 C          1.6274441018       -3.9868437182       -0.8554005250
 H          1.2104890480       -3.0045574496       -0.6203865377
 H          0.8281320853       -4.5734189795       -1.3131676837
 C          2.0837835527       -4.6686870835        0.4422237953
 H          1.3390969700       -5.4150261159        0.7265079068
 H          3.0227585857       -5.1965044459        0.2723723919
 C          2.2444540273       -3.7235389951        1.6344825887
 H          2.3562147459       -4.3302374543        2.5370316890
 H          1.3371416458       -3.1255566726        1.7539077872
 C          3.4445902816       -2.7699300311        1.5734349070
 H          3.5453821043       -2.2995368629        2.5560035939
 H          4.3551601767       -3.3366019585        1.3694312387
 H          3.0587531751       -4.8046334437       -2.2443261061
 H          2.3088716042       -3.2876987221       -2.7588754453
 H          4.5209788030       -3.6557683789       -0.6990190416
 H          4.5899083277       -2.7967315880       -2.2495882141
 O          3.4054730042       -0.7481565861       -1.6079680009
 C          2.9639040793        0.5010858871       -1.1964758596
 O          2.8560035310        1.3346723731       -2.1145052052
 O          2.5801085289       -0.1995087932        2.3386520306
 C          2.2072362673        2.0502592509        0.6240794803
 C          0.8798263992        2.3635950197       -0.0233910229
 C          0.6049451860        3.5569977659       -0.6760779774
 C         -0.6376980784        3.7705169217       -1.2487835452
 C         -1.6286196697        2.8091318943       -1.1834338415
 C         -1.3700659142        1.6161024006       -0.5192913395
 C         -0.1269216895        1.4083393040        0.0582270920
 H          0.0757405429        0.4797342718        0.5789482905
 N         -2.3613454029        0.6120199919       -0.4558497527
 S         -3.8741695801        1.0593528015        0.1538121644
 O         -4.5169514566        1.9272742666       -0.7988003523
 O         -3.7366472297        1.5839477696        1.4958172144
 C         -4.6954343732       -0.5205365384        0.1850259325
 C         -4.7885058870       -1.2184163849        1.3737468774
 C         -5.4083499432       -2.4583268447        1.3757768112
 C         -5.9183257070       -2.9767173698        0.1951041747
 C         -5.8168843161       -2.2637360772       -0.9905088038
 C         -5.1994081153       -1.0233209344       -0.9993317212
 H         -5.1041937651       -0.4304331605       -1.8938748952
 H         -6.2166836340       -2.6697544710       -1.9056435130
 H         -6.4000260630       -3.9417371340        0.1996773653
 H         -5.4906100697       -3.0136340331        2.2962630386
 H         -4.3848334255       -0.7735191714        2.2693562192
 H         -2.0291883835       -0.1918082977        0.0619645012
 H         -2.5983365787        2.9706728805       -1.6244362610
 H         -0.8363318252        4.7008539063       -1.7593788495
 H          1.3635904329        4.3191345087       -0.7432623872
 H          2.0378206682        1.9452084085        1.7065232341
 C          3.2644110329        3.1096742958        0.3997537587
 C          3.3071470335        4.3263795978        1.2736912391
 C          4.3569786718        3.2664213339        1.4130349488
 H          5.3564696386        3.4789135684        1.0646470176
 H          4.3249131533        2.6237972654        2.2809031377
 H          3.5883967218        5.2700241881        0.8311896499
 H          2.5632433669        4.4087628799        2.0518032270
 H          3.5323503788        3.2172633635       -0.6450949822
