  62
        -98.94011815
 C          1.7932750397        0.7480615810        0.8108155493
 C          2.1037813394        0.2971442206       -0.4959782407
 C          3.5220503293        0.3830775006       -0.8811033611
 C          4.4178206395        0.8850824910       -0.0128725215
 C          5.8951038694        0.9804451910       -0.2591847120
 C          6.6225575997       -0.2734191888        0.2459563382
 C          5.9870944896       -1.5845615390       -0.2170551912
 H          4.9987424498       -1.6827938989        0.2381164691
 H          6.6017801998       -2.3989228588        0.1728289588
 C          5.8582775292       -1.7251316494       -1.7402834712
 H          6.1795848992       -2.7287822895       -2.0267854010
 H          6.5256473690       -1.0184034295       -2.2348587516
 C          4.4375158091       -1.5422521997       -2.2778994608
 H          3.7482001893       -2.1807371596       -1.7191920504
 H          4.4228978788       -1.8779550300       -3.3182437507
 C          3.8928597090       -0.1084614297       -2.2519595111
 H          2.9679562988       -0.0949760200       -2.8357732708
 H          4.6090260088        0.5664513302       -2.7248907815
 H          6.6196499700       -0.2589407585        1.3384456482
 H          7.6598027096       -0.2305317588       -0.0912353921
 H          6.0736435591        1.1131206107       -1.3243755220
 H          6.2778046195        1.8512523212        0.2758448677
 O          4.0801553898        1.3201539413        1.2283553085
 C          2.7732175000        1.2349547813        1.6794740489
 O          2.6124103503        1.6151275816        2.8565079288
 H         -2.0568202004        0.0879566105        0.1926573706
 C         -1.4893664102       -0.7892889194        0.4507300707
 C         -0.2361900501       -0.6697934191        1.0279107003
 C          0.4690886101       -1.8334474590        1.3276471904
 C         -0.0544986199       -3.0753159191        1.0297683909
 C         -1.3108622900       -3.1886933494        0.4588068813
 C         -2.0316093502       -2.0372954095        0.1761068712
 N         -3.3157741204       -2.1002499198       -0.3911602484
 S         -4.5270493102       -1.1784846797        0.3100013516
 O         -4.3190565598       -1.0309890193        1.7323284715
 O         -5.7597929103       -1.8246346999       -0.0883401778
 C         -4.4287029806        0.4089061701       -0.4893057289
 C         -4.4349500305        1.5549342103        0.2811807408
 C         -4.3954091407        2.7880756701       -0.3501146096
 C         -4.3524096911        2.8525236097       -1.7346453796
 C         -4.3480543413        1.6919450795       -2.4938855593
 C         -4.3892904910        0.4561016997       -1.8686210189
 H         -4.3880222011       -0.4661533105       -2.4249926086
 H         -4.3110194216        1.7474832592       -3.5698651093
 H         -4.3186541014        3.8134101396       -2.2237813499
 H         -4.3953181907        3.6913453903        0.2390902502
 H         -4.4609781702        1.4571863406        1.3550075608
 H         -3.6397839403       -3.0347676999       -0.5954845681
 H         -1.7257124100       -4.1595253595        0.2325056417
 H          0.5138304103       -3.9661345790        1.2530903410
 H          1.4459483002       -1.7483001288        1.7856742601
 C          0.3818676599        0.6655954210        1.3655761197
 H          0.5056330402        0.7029903214        2.4614342397
 C         -0.5047423503        1.8448599708        0.9897725796
 C          0.0799016495        3.1679180608        0.5973563990
 C         -0.6225608607        2.3274427404       -0.4239869805
 H         -1.5917602909        2.6490068702       -0.7764263503
 H         -0.0312634809        1.8194194102       -1.1687785905
 H          1.1563203595        3.2465020708        0.5470791487
 H         -0.4057258905        4.0644482208        0.9521426489
 H         -1.4060379701        1.8822343909        1.5949601498
 O          1.2553826592       -0.1572559997       -1.3052547803
