  62
        -98.93739120
 C          1.8191602393        0.6381123499        0.9438446201
 C          2.1580471794        0.3897585505       -0.4053425900
 C          3.5958022494        0.4209360009       -0.7442263099
 C          4.4854502193        0.6974388905        0.2274619102
 C          5.9870833293        0.7422584007        0.1286320403
 C          6.6176161095       -0.6594270292        0.0844426396
 C          5.9070072296       -1.6559103889       -0.8280314809
 H          4.8649932996       -1.7486905591       -0.5161038909
 H          6.3764495997       -2.6324845089       -0.6821715513
 C          5.9633448896       -1.3289160182       -2.3183492207
 H          5.4912243197       -2.1590033380       -2.8501911811
 H          7.0077959296       -1.2832134679       -2.6352536507
 C          5.2692570995       -0.0343330880       -2.7465576501
 H          5.1846643095       -0.0570552675       -3.8370309301
 H          5.8758291694        0.8337735319       -2.5029560897
 C          3.8536061394        0.1412267316       -2.2053275101
 H          3.2637895495       -0.7504041884       -2.4470999605
 H          3.3718004094        0.9611668918       -2.7514801197
 H          6.6022243695       -1.0678942697        1.0979807294
 H          7.6600500195       -0.5599058390       -0.2226924603
 H          6.2872411793        1.3305291111       -0.7332531394
 H          6.3454259592        1.2561148203        1.0233621605
 O          4.1076607093        0.9427510198        1.5157895803
 C          2.7848283293        0.9138145295        1.9096247903
 O          2.5976666292        1.1419137089        3.1227868104
 H         -2.1170862506        0.0578076098        0.3123884597
 C         -1.5351693305       -0.8278493003        0.5046263793
 C         -0.2597890706       -0.7240446504        1.0371308994
 C          0.4535552996       -1.8934964904        1.2884126589
 C         -0.0860542103       -3.1290468003        0.9902621683
 C         -1.3582452303       -3.2277980002        0.4544071082
 C         -2.0862034704       -2.0694586602        0.2162944488
 N         -3.3732685604       -2.1329300101       -0.3364060213
 S         -4.5735535005       -1.1060382704        0.2106095391
 O         -4.4256320906       -0.8131937411        1.6171892393
 O         -5.8098283104       -1.7548281604       -0.1732990312
 C         -4.3895091206        0.3816700100       -0.7499522102
 C         -3.9925680406        0.2931574807       -2.0694069902
 C         -3.8987193107        1.4554538810       -2.8181908396
 C         -4.2102400708        2.6780785007       -2.2428886791
 C         -4.6135022609        2.7493278901       -0.9185494491
 C         -4.7045785508        1.5910125597       -0.1624475496
 H         -5.0015254708        1.6020217992        0.8742972004
 H         -4.8552920210        3.7008385598       -0.4718699786
 H         -4.1363783009        3.5805917010       -2.8289821087
 H         -3.5811777607        1.4041744616       -3.8472826897
 H         -3.7528790205       -0.6710939491       -2.4853768806
 H         -3.7228474203       -3.0653264300       -0.5019627918
 H         -1.7822983702       -4.1927988602        0.2213073678
 H          0.4849523398       -4.0251918004        1.1823544879
 H          1.4447944495       -1.8188440505        1.7155068890
 C          0.3651350693        0.6078746495        1.3750834601
 H          0.3690621393        0.7110208990        2.4707695901
 C         -0.3737303208        1.7880514997        0.7778102806
 C         -1.5393165809        2.3979598293        1.4949246309
 C         -0.2340000610        3.1307192094        1.4273422812
 H         -0.1648340910        4.0044399497        0.7972093716
 H          0.3715211290        3.1869100891        2.3204905913
 H         -1.8327379609        1.9604386888        2.4376082806
 H         -2.3651883009        2.7692244295        0.9069905310
 H         -0.3998417908        1.7542453202       -0.3054802494
 O          1.3036240494        0.1429934509       -1.2961718301
