  62
        -98.94516235
 C         -1.8026142297       -1.4684508507        0.0846036528
 C         -1.5826575779       -0.0710435637        0.0123424394
 C         -2.6871606465        0.7675827133        0.4955608874
 C         -3.8144862543        0.1941496738        0.9538582322
 C         -5.0215976317        0.9180701508        1.4863561853
 C         -5.9846993307        1.4122524257        0.3979627494
 C         -5.4928484108        2.6114084439       -0.4140030189
 H         -6.3490527483        2.9881753014       -0.9772239422
 H         -5.1775259686        3.4035994898        0.2657418548
 C         -4.3584708623        2.2901181368       -1.3973159424
 H         -4.3104681455        1.2104541845       -1.5567177548
 H         -4.5767672392        2.7468287887       -2.3653636292
 C         -2.9806261249        2.7871451008       -0.9598007731
 H         -2.2487265719        2.4696143461       -1.7063988355
 H         -2.9804999343        3.8789168406       -0.9265844213
 C         -2.5251788660        2.2547549226        0.4046182212
 H         -3.0776523112        2.7471835595        1.2045439450
 H         -1.4613486399        2.4725014510        0.5214221795
 H         -6.2061004904        0.5815188682       -0.2761751982
 H         -6.9169306979        1.6943398568        0.8930003240
 H         -5.5555032261        0.2074390302        2.1210461860
 H         -4.7029046557        1.7603168085        2.1012472544
 O         -3.9842518830       -1.1548260622        1.0046046291
 C         -2.9870160133       -2.0162128388        0.5747106421
 O         -3.2685299447       -3.2272864663        0.6845863867
 O         -0.5252968641        0.4481898213       -0.4262291045
 C         -0.7113529607       -2.4207545040       -0.3719341798
 C          0.5647097851       -2.0839509498        0.3591936669
 C          0.5481535787       -2.0593191042        1.7515125796
 C          1.6744326277       -1.7029436377        2.4674592402
 C          2.8443019694       -1.3601046550        1.8113743926
 C          2.8727140477       -1.3878950355        0.4245386795
 C          1.7426889198       -1.7596473602       -0.2929632485
 H          1.7851306156       -1.7727102167       -1.3706966264
 N          4.0570086426       -1.0352006216       -0.2537653898
 S          4.6962946669        0.4843246431        0.0463542747
 O          5.6622201691        0.6982206960       -1.0081826517
 O          5.2082412686        0.5239729092        1.3929895695
 C          3.3348874778        1.6210813339       -0.1296019240
 C          2.6061316381        1.9898716479        0.9819989365
 C          1.5271139957        2.8429051976        0.8198744547
 C          1.1937357551        3.3043726552       -0.4430844408
 C          1.9326438563        2.9197471040       -1.5503008985
 C          3.0123121266        2.0671309029       -1.3953993886
 H          3.6183026863        1.7524994827       -2.2303081994
 H          1.6657601029        3.2769528224       -2.5321600662
 H          0.3504782383        3.9658286967       -0.5676168665
 H          0.9466062316        3.1386754452        1.6796277974
 H          2.8960955465        1.6112981519        1.9486449524
 H          3.9979427127       -1.1791485392       -1.2522863028
 H          3.7276828175       -1.0606097157        2.3517615916
 H          1.6422045519       -1.6860853404        3.5466378306
 H         -0.3699389975       -2.3122455292        2.2651890958
 H         -1.0321006584       -3.4276292203       -0.0693602468
 C         -0.5855417770       -2.3804452319       -1.8805872774
 C         -0.0304541304       -3.5579107495       -2.6232044178
 C         -1.4926606355       -3.2399049147       -2.7064497952
 H         -1.8825343695       -2.8397579042       -3.6304632370
 H         -2.1891008259       -3.8754808973       -2.1790342796
 H          0.5812335852       -3.3795247830       -3.4949469073
 H          0.2687051320       -4.4184466714       -2.0441038613
 H         -0.3654626407       -1.3867308740       -2.2545206994
