  62
        -98.93782720
 C          1.7627433149        1.5754689270        0.1573642889
 C          1.9501297128        0.5590397584        1.1261368358
 C          2.9665668479       -0.4709125442        0.8425065993
 C          3.6532288338       -0.3954519279       -0.3127573547
 C          4.7283612705       -1.3197190813       -0.8196617536
 C          4.1692879029       -2.6407187119       -1.3740075069
 C          3.0480154570       -3.2593177937       -0.5435279794
 H          2.2452453439       -2.5280760619       -0.4367160087
 H          2.6493958134       -4.1088643295       -1.1041679537
 C          3.4617712713       -3.7692866449        0.8348361498
 H          2.5853528719       -4.2420963898        1.2861691359
 H          4.2266058451       -4.5401909444        0.7161234857
 C          3.9896187697       -2.7147201765        1.8089319389
 H          5.0052193377       -2.4238330684        1.5545957264
 H          4.0398019784       -3.1814488088        2.7972997349
 C          3.1081893979       -1.4780944945        1.9583190751
 H          3.4556220737       -0.9087693404        2.8292490190
 H          2.0888086494       -1.7915387597        2.2112230793
 H          4.9918101264       -3.3510645747       -1.4716919735
 H          3.7721290181       -2.4443814298       -2.3726499097
 H          5.2389347868       -0.7920333449       -1.6281741999
 H          5.4564392385       -1.5037523954       -0.0348553086
 O          3.4102415118        0.5755429128       -1.2354032219
 C          2.4614991773        1.5653802141       -1.0498227494
 O          2.3584293846        2.3454439604       -2.0154367304
 O          1.2936348140        0.5128653655        2.2023259186
 C          0.7219655200        2.6372321679        0.4746120404
 C         -0.5975698001        2.2125764454       -0.1223208644
 C         -0.8536083924        2.3045381522       -1.4860829733
 C         -2.0554593837        1.8544807788       -2.0026637651
 C         -3.0196631959        1.3007318024       -1.1778838580
 C         -2.7666512425        1.1940620892        0.1829930711
 C         -1.5634453975        1.6520303349        0.7013580061
 H         -1.3608507439        1.5500999762        1.7589051079
 N         -3.7305622045        0.6107105138        1.0272038561
 S         -4.3443298249       -0.8733235479        0.5535736887
 O         -5.3657555917       -0.6747403541       -0.4436969199
 O         -4.7719168562       -1.5181165798        1.7747272674
 C         -2.9585840339       -1.7393620343       -0.1626630396
 C         -1.8779253881       -2.0215059821        0.6493527512
 C         -0.7801139750       -2.6650765860        0.1037088558
 C         -0.7789860755       -3.0105855801       -1.2389295600
 C         -1.8720495035       -2.7216492736       -2.0405496990
 C         -2.9735984007       -2.0778052836       -1.5000513458
 H         -3.8433773254       -1.8334797958       -2.0876981092
 H         -1.8671518205       -2.9927804896       -3.0839651647
 H          0.0801515327       -3.5082549084       -1.6603170294
 H          0.0719746149       -2.8870884622        0.7265779362
 H         -1.9045190467       -1.7431505072        1.6909128910
 H         -3.4500094162        0.5840210045        1.9970856083
 H         -3.9601206023        0.9453233860       -1.5667931403
 H         -2.2438610822        1.9321920043       -3.0626171973
 H         -0.0935595476        2.7062613756       -2.1379612841
 H          0.6126242412        2.6141467395        1.5674314935
 C          1.1179027727        4.0399729596        0.0659029218
 C          0.3819528101        5.1981544359        0.6679926985
 C          1.8021025957        4.9260403266        1.0614612414
 H          2.5737561859        5.5943780462        0.7101363614
 H          1.9902274912        4.5237282081        2.0464121195
 H          0.1749167036        6.0556982253        0.0466568175
 H         -0.3942687127        4.9787109379        1.3857694662
 H          1.4319235124        4.1241193404       -0.9653607974
