  62
        -98.94060362
 C         -2.6211137300       -0.5054714336       -0.4463820785
 C         -3.0398159524        0.3516455351        0.6056946070
 C         -2.9689449082        1.7940035047        0.3491417307
 C         -2.5417978544        2.2244796689       -0.8512110025
 C         -2.3849210415        3.6641263500       -1.2443259090
 C         -0.9616024333        4.1663173171       -0.9673151943
 C         -0.4505651819        3.8466853907        0.4380125655
 H         -0.3059084994        2.7667518103        0.5315839054
 H          0.5396347395        4.2989493673        0.5317866568
 C         -1.3501829486        4.3518427651        1.5748145416
 H         -2.0137369141        5.1330894129        1.2015895511
 H         -0.7169617747        4.8016996508        2.3424441011
 C         -2.1802004659        3.2682665675        2.2664084262
 H         -2.5794763139        3.6871419211        3.1941451635
 H         -1.5306222592        2.4309782946        2.5374659725
 C         -3.3666455582        2.7193204657        1.4634694187
 H         -3.9831364429        2.1238923889        2.1431413044
 H         -3.9703923614        3.5465894512        1.0849843224
 H         -0.9404377377        5.2461576655       -1.1273224937
 H         -0.2827436015        3.6998038118       -1.6848575074
 H         -3.1070088566        4.2647861780       -0.6947478374
 H         -2.5892155492        3.7522196430       -2.3129132112
 O         -2.1656031627        1.3794262121       -1.8410530120
 C         -2.1420669307        0.0047803249       -1.6527115681
 O         -1.6834542488       -0.6155520088       -2.6347808367
 O         -3.4602948543       -0.0799959418        1.7131830997
 C         -2.6264427445       -1.9935504460       -0.1334134823
 C         -1.2953534938       -2.3758737858        0.4709616180
 C         -1.2098276150       -3.0372635152        1.6898055265
 C          0.0209196387       -3.2966807866        2.2688369047
 C          1.1896393086       -2.8829286599        1.6543450799
 C          1.1113754487       -2.2324645023        0.4319376774
 C         -0.1183241567       -2.0022869938       -0.1612040906
 H         -0.1625130549       -1.4864031698       -1.1098947427
 N          2.3024928508       -1.7231944125       -0.1619117014
 S          2.6196415669       -0.1804433395        0.4746755233
 O          2.6660470445       -0.2966326157        1.9103564004
 O          1.6834004069        0.7853838574       -0.0609036697
 C          4.2577008540        0.1312552792       -0.1553751236
 C          5.3058899883       -0.5985360584        0.3716666403
 C          6.5828031801       -0.3876369513       -0.1223055687
 C          6.7887270172        0.5435086494       -1.1297636387
 C          5.7263589750        1.2672294879       -1.6489236201
 C          4.4456961971        1.0596713967       -1.1599795126
 H          3.5895769282        1.6011888237       -1.5302361445
 H          5.8884785707        1.9913216790       -2.4311308505
 H          7.7836951930        0.7075445984       -1.5122035149
 H          7.4118718022       -0.9480103337        0.2784944634
 H          5.0976692542       -1.3048748531        1.1576872928
 H          2.1723356062       -1.5986893622       -1.1596214065
 H          2.1519664959       -3.0328650653        2.1148044241
 H          0.0687219570       -3.8048992036        3.2198484029
 H         -2.1182698935       -3.3214105682        2.2003362538
 H         -3.3931527967       -2.1271564404        0.6422018599
 C         -2.9684654071       -2.8885500995       -1.3065323421
 C         -3.5220583745       -4.2552646542       -1.0405212237
 C         -4.4051916144       -3.1862530016       -1.6087553462
 H         -4.7072792485       -3.2564926812       -2.6426142260
 H         -5.1522983365       -2.7454542864       -0.9649471448
 H         -3.2171689361       -5.0661708880       -1.6836525687
 H         -3.6744771911       -4.5427262220       -0.0114602498
 H         -2.2984880298       -2.7697383816       -2.1476817185
