  62
        -98.93154500
 C         -2.0710688091       -0.7232962995        0.8542854569
 C         -2.3630896714       -0.2998242120       -0.4665461423
 C         -2.7527481518        1.1103599999       -0.6084871509
 C         -2.7392374102        1.9245310850        0.4611200801
 C         -3.0791627721        3.3902700784        0.4661206951
 C         -4.5824548840        3.6842843186        0.5656094367
 C         -5.3896090053        3.3850235068       -0.6982806429
 H         -6.3736870989        3.8382574157       -0.5638384398
 H         -4.9191836520        3.8740671690       -1.5517872892
 C         -5.5708897558        1.8897998079       -0.9946325105
 H         -5.3474547567        1.3108850714       -0.0956692561
 H         -6.6140525311        1.6933873604       -1.2517140785
 C         -4.7139035438        1.3631230105       -2.1458699167
 H         -5.0189246550        1.8412265745       -3.0792115380
 H         -4.8916437005        0.2892127543       -2.2425561701
 C         -3.2060491324        1.5773356753       -1.9586122160
 H         -2.6757723270        0.9844377662       -2.7081632398
 H         -2.9521086678        2.6274413494       -2.1030318548
 H         -4.6905590823        4.7462981316        0.7974859383
 H         -4.9935847210        3.1171333599        1.4038452015
 H         -2.6709744617        3.8617347214       -0.4285617374
 H         -2.5837969635        3.8198596643        1.3396953033
 O         -2.3780570672        1.4953148511        1.7006112548
 C         -2.0431415806        0.1713910625        1.9245420187
 O         -1.7343844155       -0.0837865501        3.1087103815
 O         -2.3033912820       -1.0428508186       -1.4771478548
 C         -1.6520468720       -2.1611684869        1.1497799070
 C         -0.4085874452       -2.4207637440        0.3334390510
 C         -0.2861899192       -3.1898539189       -0.8156902885
 C          0.9118979449       -3.2348834698       -1.5119011956
 C          2.0118086056       -2.5094057264       -1.0964215784
 C          1.9015323809       -1.7324845524        0.0479328367
 C          0.7119392216       -1.7049937045        0.7519041953
 H          0.6314590229       -1.0780259087        1.6332029430
 N          3.0086005815       -0.9414145317        0.4594715327
 S          3.1396298973        0.4977846051       -0.4258505615
 O          2.2564668027        1.5014138966        0.1355029032
 O          2.9662198385        0.1955001331       -1.8229452867
 C          4.8377847696        0.9354054331       -0.1065025469
 C          5.8262353560        0.2944850182       -0.8281361392
 C          7.1521583689        0.5957263058       -0.5622776934
 C          7.4659462898        1.5261099883        0.4174705286
 C          6.4627740594        2.1610446499        1.1335936850
 C          5.1342207512        1.8631037543        0.8726491858
 H          4.3215750209        2.3379791756        1.3990198052
 H          6.7087901564        2.8853399777        1.8934521818
 H          8.4986391805        1.7596508515        0.6230829898
 H          7.9348809016        0.1052429098       -1.1181024032
 H          5.5334983327       -0.4145758140       -1.5844763309
 H          2.9167066051       -0.6737195855        1.4322379457
 H          2.9349051347       -2.5134266315       -1.6515489522
 H          0.9781578356       -3.8356919218       -2.4064005501
 H         -1.1260497624       -3.7340400723       -1.2074005847
 H         -1.3310341713       -2.1459913563        2.2039118625
 C         -2.8512621803       -3.0947934564        1.1137420893
 C         -3.5250353531       -3.6185237894       -0.1164648480
 C         -2.7814280208       -4.5563899209        0.7874047495
 H         -3.3594567844       -5.2359199021        1.3960994788
 H         -1.8374463766       -4.9605933610        0.4599716526
 H         -4.6053821149       -3.6561613645       -0.1101868732
 H         -3.1170939958       -3.3461965890       -1.0755337056
 H         -3.5248298237       -2.8260378141        1.9253309092
