  62
        -98.94259024
 C          1.4578709487        0.9248942924       -0.4786909185
 C          2.8097259194        1.3176152680       -0.6497514276
 C          3.8032593286        0.2380675939       -0.6375290473
 C          3.4026357846       -1.0334934726       -0.4589005073
 C          4.2908149561       -2.2479802471       -0.4426323321
 C          4.9462995775       -2.5217519985        0.9178990793
 C          6.0692782652       -1.5586064328        1.3049904455
 H          6.5807608352       -1.9924631700        2.1666029247
 H          6.7940183247       -1.5009606780        0.4922062001
 C          5.5940217056       -0.1463507979        1.6742401138
 H          6.0934290215        0.1782902202        2.5899950664
 H          4.5221437423       -0.1660921329        1.8845354266
 C          5.8693004536        0.9147821469        0.6087289330
 H          5.4609259337        1.8664501995        0.9585606998
 H          6.9474684761        1.0377385928        0.4835921959
 C          5.2501220822        0.6097609539       -0.7615359917
 H          5.3112579602        1.5131887719       -1.3735459653
 H          5.8064756925       -0.1859252055       -1.2568582305
 H          5.3604896020       -3.5320350785        0.8827983892
 H          4.1717240844       -2.5062740091        1.6880467454
 H          3.6568796877       -3.1000894972       -0.6964673219
 H          5.0626768123       -2.1488058491       -1.2063912602
 O          2.0990647998       -1.3691680092       -0.2799866559
 C          1.0946588803       -0.4055727972       -0.2584213996
 O         -0.0373146179       -0.8690819215       -0.0392738385
 H         -2.2827281847        1.3496143330       -0.5234692388
 C         -1.8857020125        1.4647163218        0.4704455278
 C         -0.5571723467        1.8066260995        0.6646797815
 C         -0.0842621158        1.9393329194        1.9678284924
 C         -0.9184494206        1.7251518225        3.0473876671
 C         -2.2410867518        1.3694923456        2.8501219925
 C         -2.7237647264        1.2390240681        1.5535293863
 N         -4.0646348253        0.9015609644        1.3297419815
 S         -4.5572369596        0.0565523791       -0.0194243222
 O         -4.5100923004        0.9075741680       -1.1829856390
 O         -5.8740144229       -0.4284638723        0.3424504529
 C         -3.4590459644       -1.3328179886       -0.2194866560
 C         -2.9294261321       -1.5983796675       -1.4636402617
 C         -2.1178059949       -2.7084692655       -1.6245878124
 C         -1.8497075572       -3.5286703059       -0.5418342077
 C         -2.3909212265       -3.2490973029        0.7024418447
 C         -3.2062925826       -2.1429633774        0.8681085040
 H         -3.6423310421       -1.9048781451        1.8249991853
 H         -2.1725000227       -3.8860355043        1.5448772602
 H         -1.2075013109       -4.3865600030       -0.6667631414
 H         -1.6891821536       -2.9225379837       -2.5912837655
 H         -3.1534102167       -0.9283242124       -2.2784058366
 H         -4.5893892859        0.6430416821        2.1515588956
 H         -2.8944754260        1.1941651763        3.6911778864
 H         -0.5364848725        1.8283095780        4.0519666648
 H          0.9531800993        2.2041798097        2.1220037819
 C          0.4017588822        2.0156576352       -0.4786464734
 H          0.9644154753        2.9452235151       -0.2887352049
 C         -0.2993297902        2.1995753492       -1.8159088241
 C          0.4224549584        1.9582835919       -3.1067451208
 C         -0.6864453734        1.0432961828       -2.6860530681
 H         -1.6283710166        1.0992932714       -3.2130082160
 H         -0.4368952887        0.0519725314       -2.3408724926
 H          0.2483075859        2.6380749837       -3.9272345135
 H          1.4367254908        1.5908791378       -3.0509299493
 H         -0.9855350015        3.0415621614       -1.7994247459
 O          3.1697941631        2.5153292265       -0.8037797053
