  62
        -98.93872953
 C         -2.5842545314       -1.3611934341        0.1493440684
 C         -2.5161166159       -0.3107850055       -0.7949049473
 C         -3.5093510556        0.7707233436       -0.6498257831
 C         -4.4142246098        0.7147080670        0.3448737011
 C         -5.5587858333        1.6379035995        0.7074896997
 C         -5.6464593553        3.0433110519        0.1183797211
 C         -4.5470958395        4.0002299391        0.5788651794
 H         -4.6474490019        4.9318422700        0.0178558082
 H         -4.7058735364        4.2292959503        1.6355660774
 C         -3.1173522365        3.4846044931        0.4319116461
 H         -2.4404858460        4.2596577264        0.8019083081
 H         -2.9741524588        2.6076566701        1.0669069925
 C         -2.6873362761        3.1390156893       -0.9925614391
 H         -2.8495619856        3.9995215785       -1.6449482493
 H         -1.6123012165        2.9351843086       -0.9705539365
 C         -3.3796155443        1.9138347787       -1.6145989969
 H         -4.3474205691        2.1768483308       -2.0346687726
 H         -2.7516823710        1.5545138410       -2.4352651104
 H         -6.6028817983        3.4586791993        0.4472346906
 H         -5.6805709005        2.9962320534       -0.9660125541
 H         -6.4729141090        1.0949816141        0.4431596702
 H         -5.5477111493        1.7082880304        1.7997020848
 O         -4.4470439451       -0.3279057242        1.2258705041
 C         -3.5359031238       -1.3647245625        1.1701891177
 O         -3.6766101044       -2.2195865409        2.0669796598
 H          0.4609559322       -1.6949858848       -1.5017121912
 C          0.6857978850       -1.5584569716       -0.4560429048
 C         -0.2355381956       -1.9458139330        0.5036138840
 C          0.0667005055       -1.7270818455        1.8450426911
 C          1.2623316103       -1.1390377701        2.2119031054
 C          2.1764537346       -0.7448858108        1.2495846208
 C          1.8761582785       -0.9429962302       -0.0905783140
 N          2.7899965037       -0.5298268303       -1.0760040585
 S          3.4115367728        1.0269602833       -0.9665342969
 O          2.5131106959        1.9192274983       -0.2711356884
 O          3.7636207847        1.3916320661       -2.3217939143
 C          4.9089715434        0.8106518853       -0.0252210858
 C          5.1220733351        1.5603408134        1.1148219315
 C          6.2986954898        1.3805838582        1.8256994155
 C          7.2370337746        0.4598575634        1.3855564223
 C          7.0094925518       -0.2831847765        0.2366502478
 C          5.8360389281       -0.1072974553       -0.4788468506
 H          5.6227923334       -0.6609534504       -1.3778138535
 H          7.7416967055       -0.9980247339       -0.1026759928
 H          8.1511346848        0.3210439466        1.9409451839
 H          6.4771613717        1.9583618205        2.7183866700
 H          4.3617600785        2.2610030914        1.4220012203
 H          2.4689167408       -0.7126972484       -2.0164080233
 H          3.1045513722       -0.2723996324        1.5271747782
 H          1.4844252543       -0.9801276495        3.2562979001
 H         -0.6590560722       -2.0110040823        2.5949031829
 C         -1.5867234903       -2.5094657480        0.1370172736
 H         -1.9025846978       -3.1888522766        0.9396516438
 C         -1.6055170705       -3.2646738569       -1.1752415269
 C         -0.9502559929       -4.6098818407       -1.2543679369
 C         -2.4441145491       -4.5000286014       -1.2950500200
 H         -2.9511766421       -4.6885736948       -2.2294973423
 H         -3.0048265321       -4.8091303471       -0.4249764854
 H         -0.4298310980       -4.8784667528       -2.1609262558
 H         -0.4948153583       -4.9940553421       -0.3542687304
 H         -1.5518488859       -2.6206527998       -2.0440313713
 O         -1.6779546467       -0.2675093700       -1.7345708733
