  62
        -98.94393229
 C         -1.7905399509       -0.6385886813        0.5611524832
 C         -3.0650460551       -0.6098552249        1.1758454214
 C         -4.2133410577       -0.5333918154        0.2660186246
 C         -4.0107541737       -0.5190749346       -1.0642287097
 C         -5.0804077977       -0.4698366300       -2.1213975044
 C         -5.5874462103        0.9449998503       -2.4325835772
 C         -6.4691909109        1.5726835324       -1.3522484193
 H         -7.2748836583        0.8838023931       -1.0964245646
 H         -6.9278379966        2.4617900076       -1.7896354708
 C         -5.7156447252        1.9822579198       -0.0790717317
 H         -6.0247390903        2.9863485650        0.2203235856
 H         -4.6444453908        2.0279012434       -0.2894422252
 C         -5.9468190832        1.0611064545        1.1189819080
 H         -6.9948547459        1.1113716739        1.4225080488
 H         -5.3380353139        1.4226374118        1.9518652108
 C         -5.5808127459       -0.4074194448        0.8665494802
 H         -6.3252122250       -0.8751530537        0.2225127592
 H         -5.5716007146       -0.9280868260        1.8273411639
 H         -6.1680638712        0.8872045270       -3.3561855857
 H         -4.7270957516        1.5913399674       -2.6217131637
 H         -5.9189022681       -1.1005468034       -1.8246197658
 H         -4.6381879971       -0.8837696972       -3.0301775877
 O         -2.7701539878       -0.5702927118       -1.6168052058
 C         -1.6304138738       -0.6117159611       -0.8246219630
 O         -0.5637549607       -0.6259408606       -1.4645887047
 O         -3.2332947761       -0.6466803325        2.4248314095
 C         -0.5589452474       -0.7101851327        1.4417612763
 C          0.3601186333        0.4666252571        1.2207149878
 C         -0.1585939604        1.7120871105        0.8800972656
 C          0.6731822515        2.7931331308        0.6553607888
 C          2.0451318553        2.6633998157        0.7821704081
 C          2.5722863523        1.4347926177        1.1506066774
 C          1.7352450333        0.3474423486        1.3680718028
 H          2.1659391994       -0.6021789082        1.6471411987
 N          3.9755858631        1.3063001384        1.2774248645
 S          4.8207480664        1.2312641069       -0.1696540230
 O          6.2155379858        1.1164689670        0.1906339571
 O          4.4548191952        2.3657307873       -0.9765022397
 C          4.2613968497       -0.2895760892       -0.9138111444
 C          3.0090806266       -0.3230157875       -1.4935336706
 C          2.5205714548       -1.5310004722       -1.9663955938
 C          3.2935118279       -2.6767903996       -1.8573972194
 C          4.5546068493       -2.6253680815       -1.2811901409
 C          5.0412951404       -1.4236699567       -0.7935644660
 H          6.0106640309       -1.3388957446       -0.3291447572
 H          5.1528167426       -3.5190534177       -1.2024803015
 H          2.9073472718       -3.6158230154       -2.2224709303
 H          1.5270932296       -1.5600417982       -2.3855043823
 H          2.4234799764        0.5789751316       -1.5678579810
 H          4.2516136890        0.5213623828        1.8524154700
 H          2.7113748700        3.4877321192        0.5880006993
 H          0.2493823233        3.7466618747        0.3777875728
 H         -1.2296675396        1.8234822999        0.7797033378
 H         -0.9383223861       -0.6577193384        2.4740923787
 C          0.1424978848       -2.0411199586        1.2475081171
 C          0.8027815516       -2.7361357549        2.3999961463
 C         -0.4748407931       -3.2748100836        1.8320406749
 H         -0.4437152627       -4.1893117317        1.2594384827
 H         -1.3824208522       -3.1492484763        2.4045664789
 H          1.7139468137       -3.2859930074        2.2167083955
 H          0.7601257450       -2.2581370194        3.3673363519
 H          0.6014264541       -2.1265095650        0.2687037481
