  62
        -98.94006706
 C         -1.0214205617       -1.6133188342        0.0989914443
 C         -1.5387829830       -0.6277157898        0.9688878443
 C         -2.7774749596        0.0499994295        0.5481213720
 C         -3.3149725577       -0.2607297616       -0.6450986855
 C         -4.5585402675        0.2956524617       -1.2907612555
 C         -4.7178576792        1.8238094789       -1.2520623946
 C         -5.8452746143        2.2926706772       -0.3308033450
 H         -6.1755597274        3.2807547958       -0.6589521809
 H         -6.6913962394        1.6115623445       -0.4434719178
 C         -5.4733441584        2.3974592428        1.1470348511
 H         -4.8044894023        3.2491554372        1.2899963537
 H         -6.3898451411        2.6060141773        1.7040638011
 C         -4.8073180124        1.1567556741        1.7456541851
 H         -5.2831646913        0.2500274433        1.3744644009
 H         -4.9676866166        1.1824350902        2.8256110293
 C         -3.2922106663        1.0920072513        1.5035485516
 H         -2.7799126633        0.8785644606        2.4472876115
 H         -2.9204267114        2.0693656699        1.1784262922
 H         -4.9460515819        2.1619292710       -2.2643620016
 H         -3.7735061611        2.2869119284       -0.9663866802
 H         -4.5177357234       -0.0471711805       -2.3270881096
 H         -5.4314420905       -0.1802338733       -0.8373805035
 O         -2.7669773918       -1.2013879602       -1.4668639519
 C         -1.6076237289       -1.8823811027       -1.1362580165
 O         -1.2143972096       -2.6809887736       -2.0077591515
 O         -0.9837892448       -0.3203892151        2.0600311417
 C          0.2710689491       -2.3149783080        0.4697689678
 C          1.3817484604       -1.8948173411       -0.4634829648
 C          2.3768427598       -2.7556037547       -0.9098250157
 C          3.3822551013       -2.2898487626       -1.7400062990
 C          3.4359967085       -0.9609248558       -2.1203104015
 C          2.4478321552       -0.0908137005       -1.6741597342
 C          1.4326587463       -0.5661111513       -0.8609928863
 H          0.6561786687        0.1141538379       -0.5483434653
 N          2.4543665480        1.2677922162       -2.0241644917
 S          1.9521526320        2.4044536250       -0.9030318172
 O          0.5154535125        2.3975310775       -0.7826510440
 O          2.5360321324        3.6435947237       -1.3725981846
 C          2.7385954505        1.9124421336        0.6209728341
 C          4.1081569807        2.0843472026        0.6985352020
 C          4.7766042708        1.6693190299        1.8376064206
 C          4.0678380357        1.0843462173        2.8765492217
 C          2.6946339206        0.9244882895        2.7860867686
 C          2.0181807138        1.3412544628        1.6493387599
 H          0.9496475187        1.2180175048        1.5633866746
 H          2.1339899771        0.4714767476        3.5883155875
 H          4.5868699770        0.7537710869        3.7623790263
 H          5.8442706192        1.7987435709        1.9114450900
 H          4.6200828221        2.5540893998       -0.1256407782
 H          3.2695553708        1.5748440028       -2.5337543844
 H          4.2249331535       -0.6002365504       -2.7620848096
 H          4.1428082308       -2.9714766759       -2.0891367473
 H          2.3606588086       -3.7919254506       -0.6149021803
 H          0.5263492326       -1.9401247272        1.4732816931
 C          0.0784759109       -3.8146985068        0.5457929396
 C          0.8827542079       -4.6320005912        1.5111529418
 C         -0.5755766513       -4.3977898616        1.7617003754
 H         -1.2635341713       -5.2197134754        1.6325930242
 H         -0.8575520996       -3.7135366183        2.5487390233
 H          1.1963713366       -5.6208781841        1.2123904273
 H          1.5921741635       -4.1123060266        2.1371687196
 H         -0.1721378781       -4.2506658715       -0.4143521539
