  62
        -98.93859490
 C          1.9652762001        1.2604473894        0.7816277289
 C          3.0041447798        1.1904303991       -0.1795846514
 C          3.9920169597        0.1169177689        0.0268040486
 C          3.8547342898       -0.7265264708        1.0647591388
 C          4.7534355897       -1.8941757509        1.3496534688
 C          4.2364726593       -3.1726173610        0.6751426592
 C          3.8889548890       -2.9941394212       -0.8027799507
 H          3.5669888588       -3.9667220912       -1.1809002805
 H          3.0363000591       -2.3168070611       -0.8898171707
 C          5.0437112689       -2.4676618516       -1.6664164311
 H          5.9917254990       -2.6121611116       -1.1467830013
 H          5.0875517986       -3.0525822818       -2.5876124510
 C          4.9103572890       -1.0001233516       -2.0772619314
 H          3.9240717990       -0.8307314216       -2.5163272112
 H          5.6529860989       -0.7955043619       -2.8531766216
 C          5.1231025195        0.0282877986       -0.9592164516
 H          6.0657289695       -0.1747988615       -0.4467324818
 H          5.1915256095        1.0152070284       -1.4263546218
 H          4.9962027092       -3.9492142011        0.7812529392
 H          3.3375766694       -3.5019370407        1.2011301095
 H          5.7581728296       -1.6664927012        0.9988046286
 H          4.7829365699       -2.0497689407        2.4294955489
 O          2.8358589200       -0.6372746605        1.9579382590
 C          1.8717470602        0.3467988796        1.8350592991
 O          0.9914307504        0.3142867900        2.7192191793
 H         -1.7042355896        2.0593950102        1.5327905296
 C         -1.5676643099        1.7301918599        0.5117405296
 C         -0.3057252700        1.7886389596       -0.0595106507
 C         -0.1395088804        1.3291035493       -1.3626703207
 C         -1.2203390707        0.8468524093       -2.0779704603
 C         -2.4817428005        0.8006680797       -1.5090789300
 C         -2.6528421202        1.2356614400       -0.2016278601
 N         -3.9217582900        1.1730134003        0.3932638502
 S         -4.8937282603       -0.1529305396        0.0930551907
 O         -5.5588975806        0.0121132802       -1.1754417191
 O         -5.7581035701       -0.2515599292        1.2476574410
 C         -3.7949401206       -1.5576810498        0.0127929508
 C         -2.9243346404       -1.7774682497        1.0617061506
 C         -2.0620524505       -2.8600699999        1.0014797206
 C         -2.0882751609       -3.7038437201       -0.0985145892
 C         -2.9737845511       -3.4745420002       -1.1401416590
 C         -3.8343775910       -2.3899121600       -1.0876335291
 H         -4.5332756211       -2.1703006801       -1.8785047789
 H         -2.9929787615       -4.1338662704       -1.9928772989
 H         -1.4134016611       -4.5441464102       -0.1416839592
 H         -1.3691165004       -3.0327172698        1.8097652105
 H         -2.9204420501       -1.1094554896        1.9081862005
 H         -3.9386153798        1.4337408305        1.3679829902
 H         -3.3341625407        0.4383011897       -2.0603263997
 H         -1.0813453510        0.5019233391       -3.0912800103
 H          0.8444333095        1.3602266691       -1.8058925409
 C          0.8612130002        2.3049705196        0.7419048189
 H          0.5245856105        2.4038935998        1.7862597690
 C          1.3407950003        3.6791255894        0.2958085985
 C          0.9236054401        4.3340093092       -0.9830613615
 C          0.3884386605        4.8384025196        0.3211110585
 H          0.7366245808        5.7888787296        0.6961766682
 H         -0.6453499394        4.6250746298        0.5500976488
 H          1.6632451501        4.9212518690       -1.5054134518
 H          0.2501236299        3.8034379192       -1.6372094413
 H          2.3547112404        3.8794406093        0.6256789282
 O          3.1211923297        1.9683069088       -1.1597036016
