  62
        -98.93806020
 C         -2.5957025404       -1.2994255061        0.1387280954
 C         -2.6617522373       -0.2974108374       -0.8578720204
 C         -3.5413084898        0.8515735607       -0.5746784442
 C         -4.2250396905        0.9010995950        0.5804502172
 C         -5.1978953283        1.9509380806        1.0554260217
 C         -4.8190609484        3.4217423597        0.8331991070
 C         -3.3149086249        3.7241234311        0.9032171576
 H         -3.1521413901        4.5615943345        1.5842387686
 H         -2.7752062581        2.8667205212        1.3100157140
 C         -2.7163916449        4.1026583217       -0.4538254473
 H         -1.7806666622        4.6421065797       -0.2865747482
 H         -3.4020567515        4.7843669027       -0.9620614382
 C         -2.3978676574        2.9300978944       -1.3807435298
 H         -1.5448850716        2.3703238415       -0.9843430205
 H         -2.0870296866        3.3394831807       -2.3453921332
 C         -3.5497309922        1.9375940192       -1.6119370546
 H         -4.5076823408        2.4500642267       -1.6506780331
 H         -3.3794823476        1.4427386210       -2.5718719244
 H         -5.2022312007        3.7564411295       -0.1297374053
 H         -5.3410824935        4.0001220494        1.5972162191
 H         -6.1652969074        1.7559178783        0.5837142046
 H         -5.3172420704        1.7618003907        2.1248636912
 O         -4.1366905217       -0.0880130866        1.5131497262
 C         -3.3243864511       -1.1899663531        1.3269395987
 O         -3.3404172503       -2.0001781484        2.2748878055
 H         -0.0045942288       -1.0661975133       -1.4795283473
 C          0.4524277819       -1.3955537766       -0.5583802111
 C         -0.2840240523       -2.1683675655        0.3281893660
 C          0.3073004627       -2.5481011286        1.5277753495
 C          1.6025773798       -2.1639796045        1.8274097952
 C          2.3310068946       -1.3888320525        0.9425492399
 C          1.7441007282       -0.9940774636       -0.2522451063
 N          2.4677407399       -0.1853323897       -1.1502717428
 S          3.0820613253        1.2540766029       -0.5356721055
 O          2.2962346580        1.7337210477        0.5787490319
 O          3.1968962586        2.1412322634       -1.6726957440
 C          4.7164140331        0.8073544581        0.0133675923
 C          5.0989579471        1.0528022702        1.3174136489
 C          6.3786804975        0.7003511677        1.7178348769
 C          7.2480654670        0.1124505131        0.8118701393
 C          6.8491115714       -0.1250751229       -0.4952294148
 C          5.5720161530        0.2261896802       -0.9021687838
 H          5.2232065103        0.0628750451       -1.9081176231
 H          7.5280359335       -0.5823869573       -1.1968262765
 H          8.2425058410       -0.1621793989        1.1265051315
 H          6.6904675193        0.8845493979        2.7334038287
 H          4.3861585533        1.5058714174        1.9881165789
 H          1.9619627009       -0.0050359147       -2.0067907641
 H          3.3367197419       -1.0779023382        1.1744849771
 H          2.0484349700       -2.4672119622        2.7624812941
 H         -0.2659038075       -3.1306473894        2.2347339461
 C         -1.7165767033       -2.5372812102        0.0241509641
 H         -2.0621832590       -3.2168638792        0.8142865708
 C         -1.8539697875       -3.2449248045       -1.3091121965
 C         -1.4363052338       -4.6797812411       -1.4129937557
 C         -2.8893155210       -4.3161983966       -1.4633759398
 H         -3.4111151464       -4.3952961830       -2.4052750427
 H         -3.5036094647       -4.5448253819       -0.6044314869
 H         -1.0651391762       -5.1573974373       -0.5188615457
 H         -0.9576954263       -5.0121610116       -2.3212405946
 H         -1.6767253372       -2.6038985397       -2.1621024844
 O         -2.0360659271       -0.3369747876       -1.9516734587
