  62
        -98.93907959
 C          2.2064720314        1.1163260858        0.5212881398
 C          2.3171027721        0.2491853155       -0.5901641313
 C          3.1182314459       -0.9736216677       -0.3923691825
 C          3.6789610477       -1.2121558369        0.8078742809
 C          4.5072133390       -2.3772272404        1.3092026144
 C          5.1130294414       -3.3832642719        0.3339967025
 C          6.2110906290       -2.8199524765       -0.5675062184
 H          7.0856347715       -2.5970242620        0.0487782107
 H          6.4961879840       -3.5952539123       -1.2818989606
 C          5.8502831064       -1.5486139763       -1.3317590294
 H          6.7197307203       -1.2595459739       -1.9282206036
 H          5.6603605555       -0.7374875146       -0.6259840812
 C          4.6580466592       -1.6708299361       -2.2788149928
 H          4.8167624542       -2.5043701389       -2.9656492707
 H          4.6123193441       -0.7531628367       -2.8711927310
 C          3.2887526824       -1.8493764301       -1.5999339389
 H          2.5142984364       -1.5439561494       -2.3101465242
 H          3.1027418931       -2.8910671399       -1.3482030369
 H          5.5596891388       -4.1744285049        0.9424988600
 H          4.3320311430       -3.8481608215       -0.2606427089
 H          5.3083358440       -1.9347616358        1.9098560836
 H          3.8621345213       -2.9202086799        2.0091770053
 O          3.5120306897       -0.3594633838        1.8625902974
 C          2.7832790860        0.8117455353        1.7513947172
 O          2.7177454314        1.4793947026        2.8040821452
 O          1.7699388405        0.4779031893       -1.7000458650
 C          1.4066895106        2.4014409096        0.4058048636
 C         -0.0201520898        2.0845365056        0.0265892493
 C         -0.7124187446        2.7450706642       -0.9792771559
 C         -2.0152900916        2.3885997182       -1.2830846034
 C         -2.6570144430        1.3787817696       -0.5904459228
 C         -1.9760761262        0.7160564807        0.4226101469
 C         -0.6729259849        1.0766631741        0.7259552061
 H         -0.1417557846        0.5555428651        1.5143036469
 N         -2.6237134653       -0.3036309493        1.1448873391
 S         -3.3329805312       -1.5513760530        0.2695006609
 O         -3.3549795853       -2.6798187283        1.1756820321
 O         -2.6729631515       -1.7576787934       -0.9985759789
 C         -5.0014569986       -0.9866153695        0.0096865836
 C         -5.7550907988       -0.6534448693        1.1181932382
 C         -7.0575044286       -0.2174429765        0.9349075249
 C         -7.5821403976       -0.1257078289       -0.3458648273
 C         -6.8136805363       -0.4673863854       -1.4481299453
 C         -5.5093824454       -0.9031392349       -1.2718446988
 H         -4.8717983284       -1.1741358553       -2.0983811515
 H         -7.2231038761       -0.3956400827       -2.4429498017
 H         -8.5960728894        0.2143100648       -0.4857431375
 H         -7.6580792508        0.0491245984        1.7895850956
 H         -5.3103722411       -0.7431070195        2.0952004368
 H         -2.0608407186       -0.6825257905        1.8932219421
 H         -3.6689248833        1.0945232344       -0.8286400150
 H         -2.5383106535        2.9050398490       -2.0734112634
 H         -0.2285824381        3.5315827050       -1.5344415388
 H          1.4007202959        2.8463848595        1.4118906651
 C          2.0904148351        3.3591164483       -0.5474471710
 C          1.9358869024        4.8390652312       -0.3716414414
 C          3.2403970298        4.1778152391       -0.0457008069
 H          4.0824109767        4.3409823987       -0.7015009520
 H          3.5134038622        4.0628543206        0.9935078395
 H          1.8852061355        5.4607020647       -1.2527492070
 H          1.3250378320        5.1839146149        0.4487958567
 H          2.1591242816        2.9640681152       -1.5544618456
