  62
        -98.93824756
 C          1.9060610268        0.9031655222       -0.3229458601
 C          3.0285700829        1.1239609898        0.5129505493
 C          4.3171227048        0.5919500928        0.0417895463
 C          4.3658971666       -0.0770773026       -1.1228591177
 C          5.5658342516       -0.6727395943       -1.8160382292
 C          6.5901883325       -1.4173415169       -0.9495675846
 C          5.9994144376       -2.1661636056        0.2539819321
 H          4.9115234939       -2.2050775319        0.1740239403
 H          6.3626708920       -3.1955614031        0.2446319452
 C          6.3902931302       -1.5421512985        1.5958159754
 H          6.2659089822       -2.2918943347        2.3809062954
 H          7.4491382326       -1.2762180638        1.5632377529
 C          5.5784983916       -0.3152867132        2.0090932613
 H          6.0264018110        0.0938438968        2.9178766313
 H          4.5581114010       -0.6156023108        2.2622202316
 C          5.4880855419        0.8032004412        0.9580328584
 H          6.4192903451        0.9012177264        0.4055776987
 H          5.2940504932        1.7422085309        1.4834162519
 H          7.3465198372       -0.7179370687       -0.5961822965
 H          7.1003167296       -2.1258666552       -1.6044998266
 H          5.1518631564       -1.3562861505       -2.5613998260
 H          6.0740336735        0.1277604679       -2.3617709275
 O          3.2574619102       -0.2815118954       -1.8885297727
 C          2.0079039790        0.1893932391       -1.5156920218
 O          1.1019575161       -0.0867578058       -2.3255872278
 O          2.9595300810        1.7519263473        1.6022905056
 C          0.5584599739        1.4322329129        0.1389116843
 C         -0.3072391405        0.2620262398        0.5326062871
 C         -0.1597815471       -0.3032833170        1.7960125749
 C         -0.9199869482       -1.3933632227        2.1775802310
 C         -1.8407994427       -1.9468685539        1.3045139612
 C         -1.9869857726       -1.3954875663        0.0392925937
 C         -1.2331304024       -0.2925551940       -0.3377330132
 H         -1.3486218351        0.1160813708       -1.3291408054
 N         -2.9330335148       -1.9510091057       -0.8513949458
 S         -4.5330329794       -1.7873664913       -0.3810713745
 O         -4.7789641444       -2.6446789430        0.7503873000
 O         -5.3216023565       -2.0450370383       -1.5644070698
 C         -4.6737847522       -0.0767969626        0.1032972144
 C         -4.9471074365        0.8648350096       -0.8686429950
 C         -4.9712321033        2.2043337202       -0.5163319161
 C         -4.7078574967        2.5780869175        0.7925730358
 C         -4.4323105390        1.6203172618        1.7560351959
 C         -4.4137648381        0.2783031578        1.4116041969
 H         -4.2083505920       -0.4958862930        2.1322854788
 H         -4.2278331438        1.9133132650        2.7732631465
 H         -4.7179669714        3.6223275889        1.0626029657
 H         -5.1903510508        2.9516618091       -1.2621197365
 H         -5.1482312060        0.5317073939       -1.8743527926
 H         -2.8215658268       -1.6128399419       -1.7971483803
 H         -2.4519731527       -2.7896298518        1.5848808374
 H         -0.7954830869       -1.8177283234        3.1623618000
 H          0.5665235153        0.1219286168        2.4745629674
 H          0.7740114144        2.0139410916        1.0451467583
 C         -0.0897563234        2.3418021137       -0.8840450904
 C         -1.2913299576        3.1439621688       -0.4844531986
 C          0.0207605783        3.8269838807       -0.7234460253
 H          0.1345333685        4.4322842945       -1.6102722953
 H          0.5680644369        4.1981657401        0.1303996105
 H         -2.0834319548        3.2802969457       -1.2043896703
 H         -1.6372454249        3.0442453785        0.5331090286
 H         -0.0535984197        1.9499238159       -1.8931633515
