  62
        -98.94018036
 C         -2.2476998024       -1.0692299917       -0.4107598495
 C         -3.5591116214       -1.0341719746        0.1270297375
 C         -4.4113411069        0.0711454641       -0.3220806310
 C         -3.9316728751        0.9646016447       -1.2060572513
 C         -4.6812692231        2.1400235988       -1.7724225272
 C         -4.6513934388        3.3857587965       -0.8762519548
 C         -5.5120448695        3.2994445667        0.3848350362
 H         -5.5706513042        4.3068255758        0.8016168368
 H         -6.5243513482        3.0001793366        0.1117336960
 C         -4.9654227294        2.3512544227        1.4613275891
 H         -5.0110733157        2.8423879311        2.4359510637
 H         -3.9123741508        2.1392307991        1.2601680563
 C         -5.7222689360        1.0286911594        1.5848585088
 H         -5.2296476030        0.4234186530        2.3498805638
 H         -6.7454609556        1.2216777098        1.9144514661
 C         -5.7729058863        0.2058551773        0.2906445100
 H         -6.1278765574       -0.7979550963        0.5357261550
 H         -6.4654402288        0.6597326064       -0.4175563125
 H         -3.6144470074        3.5893801761       -0.5981612361
 H         -5.0056793713        4.2273243340       -1.4760342819
 H         -5.7151800475        1.8556716751       -1.9695540051
 H         -4.2000299766        2.3865771798       -2.7212901575
 O         -2.6732984371        0.8868814209       -1.7149352599
 C         -1.7904571046       -0.1081928762       -1.3129525655
 O         -0.6654130596       -0.0249114520       -1.8417868502
 O         -3.9969056222       -1.8886024527        0.9429436987
 C         -1.3111544286       -2.1657600828        0.0712854337
 C         -0.3053434033       -1.5419830777        1.0081875413
 C         -0.7127004351       -1.2279380755        2.3032987755
 C          0.1538625747       -0.6161286782        3.1874022090
 C          1.4421117310       -0.2980818787        2.7943289982
 C          1.8591889035       -0.6065133476        1.5049592144
 C          0.9890528497       -1.2311090165        0.6205490780
 H          1.3273826306       -1.4402002254       -0.3800933219
 N          3.1789256582       -0.3231939667        1.1027167245
 S          3.4322103869        0.3552697043       -0.4263645292
 O          2.6125091500        1.5358119671       -0.5853042685
 O          3.3118058771       -0.6748737998       -1.4248534534
 C          5.1467547298        0.8256511989       -0.2648008527
 C          6.1193229238       -0.1400510023       -0.4417878550
 C          7.4505167060        0.2131353744       -0.2881669599
 C          7.7860533319        1.5186503934        0.0388378505
 C          6.7995668310        2.4777650111        0.2113388508
 C          5.4662509516        2.1303851114        0.0600315301
 H          4.6656806092        2.8436829502        0.1742056768
 H          7.0627422687        3.4927869737        0.4619816086
 H          8.8228669606        1.7911913453        0.1569584989
 H          8.2203046229       -0.5291213530       -0.4246076934
 H          5.8105493196       -1.1384454669       -0.7038185673
 H          3.6707010340        0.2243604988        1.7979989748
 H          2.1210365320        0.1845383905        3.4814388309
 H         -0.1754248456       -0.3790891025        4.1878948222
 H         -1.7252803988       -1.4636756829        2.6001799491
 H         -1.9445019869       -2.8431727574        0.6618053925
 C         -0.6921248611       -2.9509790925       -1.0634933084
 C         -0.0905823552       -4.2934275040       -0.7777019373
 C         -1.3722804236       -4.1950885502       -1.5477014189
 H         -1.3580480144       -4.4094607089       -2.6057954486
 H         -2.2880262781       -4.4872651688       -1.0547239397
 H          0.8081892998       -4.5753560629       -1.3045193447
 H         -0.1368948932       -4.6524276918        0.2393821534
 H         -0.2105430340       -2.3283461435       -1.8079438176
