  62
        -98.94335601
 C         -1.5451157380       -1.5802682860       -0.1931329240
 C         -1.3763225904       -0.1794048743       -0.3298553354
 C         -2.6106920424        0.5937800272       -0.5482958790
 C         -3.7973820447       -0.0377492345       -0.5651522501
 C         -5.1283190246        0.6396747997       -0.7136819049
 C         -5.7145572531        1.0191002841        0.6536236524
 C         -4.7332154088        1.7553394812        1.5659520000
 H         -5.2664692504        1.9961289189        2.4882640784
 H         -3.9186416775        1.0784236615        1.8336848953
 C         -4.1461166204        3.0395067422        0.9637929589
 H         -4.1774146805        3.8264905272        1.7202328703
 H         -4.7623181949        3.3706846363        0.1270119798
 C         -2.6916860511        2.9168120477        0.5055361838
 H         -2.3154681561        3.9221997703        0.3001784831
 H         -2.0853107383        2.4979792139        1.3122897900
 C         -2.4603483405        2.0746370888       -0.7546796545
 H         -3.1185539791        2.4199671468       -1.5545785399
 H         -1.4228973389        2.2251843118       -1.0656853970
 H         -6.5977705600        1.6393715313        0.4899114355
 H         -6.0319147447        0.1043024575        1.1597809038
 H         -5.8118677897       -0.0489145373       -1.2133937653
 H         -5.0105324467        1.5293309699       -1.3293421600
 O         -3.9228315470       -1.3789934727       -0.3911918735
 C         -2.8079625075       -2.1780068725       -0.1958123598
 O         -3.0692337280       -3.3868070568       -0.0310348108
 O         -0.2675683261        0.4088583887       -0.2774091616
 C         -0.3591533777       -2.5061887198        0.0185906944
 C          0.5784063928       -1.9121435333        1.0394501695
 C          0.1530643291       -1.8116250333        2.3614864158
 C          0.9694244449       -1.2522192262        3.3253326249
 C          2.2237221239       -0.7742440091        2.9889938725
 C          2.6567037156       -0.8705905618        1.6719696148
 C          1.8398692100       -1.4448796880        0.7083830728
 H          2.1958016478       -1.4980848560       -0.3060478332
 N          3.9288190811       -0.4088164980        1.3071740270
 S          4.2228341351        0.2538413870       -0.1946697870
 O          4.2331059067       -0.7775926278       -1.2024598968
 O          5.4761921849        0.9605404532       -0.0180051234
 C          2.9372057502        1.4438834438       -0.5248335393
 C          2.3296909362        1.4554381683       -1.7615932658
 C          1.3918773572        2.4357441807       -2.0389365111
 C          1.0760158188        3.3800456442       -1.0762950052
 C          1.6875731257        3.3484825417        0.1665270034
 C          2.6314339017        2.3753419586        0.4460628875
 H          3.1282433229        2.3341190689        1.4020600479
 H          1.4286590684        4.0772676804        0.9181184516
 H          0.3440223308        4.1428088863       -1.2936792391
 H          0.9045896637        2.4527033112       -3.0014787584
 H          2.5946820493        0.6953467343       -2.4792797224
 H          4.4371320543        0.0722316568        2.0339833758
 H          2.8620316624       -0.3310494496        3.7382327368
 H          0.6254908060       -1.1804184402        4.3462923966
 H         -0.8334346131       -2.1727021056        2.6207285163
 H         -0.7866122737       -3.4285507435        0.4454891485
 C          0.3483110784       -2.9082782991       -1.2669503047
 C         -0.4112207213       -3.0831972997       -2.5469372112
 C          0.5624322599       -1.9541472150       -2.4016687572
 H          1.4993275715       -2.0067372737       -2.9381441009
 H          0.1781949144       -0.9523110922       -2.2926533035
 H         -0.1515301388       -3.9115891468       -3.1888022222
 H         -1.4669451495       -2.8533698588       -2.5360778532
 H          1.1452598362       -3.6227359104       -1.0808911289
