  62
        -98.93676743
 C         -2.3368069607       -1.2905354037       -0.0845973510
 C         -3.1281647441       -0.6083662788        0.8682997356
 C         -4.0080262060        0.4475434489        0.3450288149
 C         -4.0084427255        0.7031608404       -0.9763035221
 C         -4.7874568589        1.7959434189       -1.6518264890
 C         -4.0924792031        3.1545931792       -1.4298830130
 C         -4.8988910861        4.1454628396       -0.5901466854
 H         -4.2313803542        4.9678602426       -0.3238122318
 H         -5.7022811152        4.5586039188       -1.2034836595
 C         -5.5284385075        3.5804886026        0.6868987539
 H         -6.4419983137        3.0386942688        0.4378083225
 H         -5.8296920171        4.4343780746        1.2973618683
 C         -4.6309509090        2.6658096995        1.5305532932
 H         -3.5781404779        2.8808106474        1.3443370436
 H         -4.8167430725        2.8854206397        2.5840316400
 C         -4.8873719173        1.1594198632        1.3358935990
 H         -4.7054144831        0.6497070090        2.2868717410
 H         -5.9367862820        0.9991769864        1.0736143869
 H         -3.1272421283        2.9720103665       -0.9523357933
 H         -3.8813031005        3.6174485331       -2.3949480404
 H         -5.8030954191        1.8173991043       -1.2631124798
 H         -4.8245742115        1.5577763841       -2.7148970101
 O         -3.2232936479        0.0336116810       -1.8595924812
 C         -2.3665168703       -0.9751332505       -1.4429027725
 O         -1.7025306547       -1.4965700826       -2.3570089250
 O         -3.0967626840       -0.8677097738        2.1030432968
 C         -1.4072590912       -2.3942642800        0.3836514529
 C          0.0264707339       -2.0631071348        0.0473277688
 C          0.9225088045       -2.9929049231       -0.4633654907
 C          2.2317612374       -2.6318117652       -0.7317954025
 C          2.6769590302       -1.3446015408       -0.4962879274
 C          1.7936776325       -0.4093901475        0.0273637688
 C          0.4851108977       -0.7756926044        0.2998029813
 H         -0.2004903204       -0.0445826512        0.7125301131
 N          2.2375747571        0.9051597801        0.2660005210
 S          3.5860382050        1.0990691440        1.2520578236
 O          3.6981228982        0.0214921926        2.2077933142
 O          3.4658519575        2.4333818164        1.7982404222
 C          4.9582374154        1.0559944005        0.1194130069
 C          5.9557193445        0.1146076395        0.2819221371
 C          7.0180657849        0.1042121805       -0.6085765277
 C          7.0636754826        1.0303030289       -1.6394227706
 C          6.0551227888        1.9710690476       -1.7868790831
 C          4.9910451288        1.9878251534       -0.8994508739
 H          4.1895238970        2.7035885305       -0.9760831987
 H          6.0941808062        2.6899639497       -2.5893773041
 H          7.8903503722        1.0194939846       -2.3320558256
 H          7.8032212057       -0.6259568642       -0.4956361925
 H          5.8742533600       -0.5889243706        1.0950311223
 H          1.5009028412        1.5289017858        0.5629655098
 H          3.6928242306       -1.0576260068       -0.7130610402
 H          2.9144313549       -3.3640911994       -1.1348784740
 H          0.5950281131       -4.0013444153       -0.6550708631
 H         -1.5007066163       -2.4094688634        1.4805316415
 C         -1.8638978943       -3.7321053956       -0.1600764908
 C         -1.6205801853       -4.9893668846        0.6185161522
 C         -3.0066638482       -4.4306182473        0.5117897547
 H         -3.7283337357       -4.9477355176       -0.1024886849
 H         -3.4361487875       -3.9532492515        1.3806902708
 H         -1.3924973305       -5.8951656107        0.0772749381
 H         -1.1106362490       -4.9001325733        1.5659417328
 H         -1.8150426595       -3.7784842290       -1.2421578274
