  62
        -98.93885641
 C          1.9083649056        0.4581818614       -0.0120653164
 C          2.9477756710        0.6841674529        0.9255841519
 C          4.1549767190       -0.1489301372        0.7974550555
 C          4.2000392746       -1.0830028348       -0.1679765849
 C          5.3378117388       -2.0087444454       -0.4990790949
 C          6.2341229742       -1.4032916874       -1.5926874803
 C          7.3489674544       -0.4923986305       -1.0802306649
 H          8.1058548399       -1.0992921802       -0.5788268500
 H          7.8215025203       -0.0348525219       -1.9524897785
 C          6.8997476799        0.6167588640       -0.1255324575
 H          7.6672613924        1.3931066738       -0.1297374989
 H          5.9791056940        1.0705704613       -0.4966435386
 C          6.6964192888        0.1269899065        1.3160020670
 H          7.1246745610       -0.8699481396        1.4180338811
 H          7.2518860928        0.7730409395        1.9990884420
 C          5.2408159695        0.1165879330        1.8043552867
 H          4.9921437760        1.0949331294        2.2275351248
 H          5.1432150049       -0.6077024656        2.6201428463
 H          6.6947423844       -2.2163029465       -2.1576136789
 H          5.5927147932       -0.8488518313       -2.2825589968
 H          5.9111685642       -2.2490879697        0.3912905676
 H          4.8886083792       -2.9260166076       -0.8858075689
 O          3.1762198658       -1.2765757312       -1.0422228380
 C          2.0144707594       -0.5245609412       -0.9957028424
 O          1.1867820128       -0.8323618192       -1.8763436437
 O          2.8731526216        1.5573480675        1.8310597299
 C          0.6564670571        1.3098437913        0.1233806152
 C         -0.4462065177        0.4943709656        0.7540517300
 C         -0.7167343650        0.6112935497        2.1130715180
 C         -1.7199244388       -0.1386768747        2.7012979311
 C         -2.4724408061       -1.0209386353        1.9469143698
 C         -2.2028999847       -1.1505904775        0.5906990898
 C         -1.2045205518       -0.3898370489       -0.0001178544
 H         -0.9884226358       -0.5139120731       -1.0500322209
 N         -2.9684479174       -2.0446101069       -0.1860914385
 S         -4.6219936764       -1.7714598024       -0.1906920204
 O         -5.1873616008       -2.2578024930        1.0427977289
 O         -5.1170302383       -2.3851181174       -1.4022459985
 C         -4.7706874072        0.0037007561       -0.2731266081
 C         -4.5064335330        0.6222951591       -1.4789486961
 C         -4.5349206367        2.0055104779       -1.5427045392
 C         -4.8136928617        2.7432536094       -0.4023674180
 C         -5.0777144994        2.1069340065        0.8002954587
 C         -5.0554758095        0.7230957962        0.8695003543
 H         -5.2580237112        0.1895437981        1.7833388369
 H         -5.2963980374        2.6831449417        1.6847882940
 H         -4.8270432370        3.8205060882       -0.4535489671
 H         -4.3371051409        2.5027882991       -2.4788281354
 H         -4.2962194096        0.0149130166       -2.3449043755
 H         -2.6247319123       -2.1336228665       -1.1318575809
 H         -3.2602426503       -1.6129211636        2.3842713791
 H         -1.9178676904       -0.0362758123        3.7573634305
 H         -0.1224586903        1.2893316974        2.7085593822
 H          0.9286966047        2.1050996689        0.8297216202
 C          0.2199439602        1.9484307657       -1.1803381116
 C         -0.8127949477        3.0337684780       -1.1408381315
 C          0.6103831453        3.3646592453       -1.4732964958
 H          0.8558999990        3.6300786709       -2.4907755652
 H          1.2007965649        3.8848765519       -0.7333382866
 H         -1.5484994317        3.0724544307       -1.9287853350
 H         -1.1901954646        3.3251715915       -0.1725728514
 H          0.1973145222        1.2603715613       -2.0152968845
