  62
        -98.93808090
 C          2.8862911829        0.0995558985       -0.4146448340
 C          2.2241582230        0.3909979905        0.8058229810
 C          1.8259611697        1.7938964351        0.9885312791
 C          2.2103457915        2.7252521853        0.0980591084
 C          1.8683553509        4.1891948635        0.1427838705
 C          0.5142456102        4.5143572118       -0.5037766162
 C         -0.7117886460        4.0619646273        0.2910981240
 H         -0.6416594517        4.4427704430        1.3102079318
 H         -1.5833576874        4.5266273275       -0.1733223601
 C         -0.9254508542        2.5407507593        0.3257581074
 H         -0.3326873072        2.0709348351       -0.4637513339
 H         -1.9738690119        2.3136413170        0.1165343721
 C         -0.5757130952        1.8865716326        1.6638157601
 H         -1.2361121432        2.2744643087        2.4428464642
 H         -0.7530009988        0.8088325606        1.5857457400
 C          0.8792071593        2.1031636848        2.1081351866
 H          1.0181230389        3.1253137214        2.4594211979
 H          1.0926176760        1.4153256872        2.9297324982
 H          0.4889058523        4.0669114383       -1.5002612977
 H          0.4615827587        5.5984983632       -0.6249274703
 H          1.8781801162        4.5406048059        1.1742868561
 H          2.6500725755        4.7115156953       -0.4126750566
 O          2.9749965658        2.4246076304       -0.9858400675
 C          3.2483160644        1.1041436118       -1.3141586980
 O          3.8117166512        0.9579951789       -2.4172072360
 H          0.6064748599       -0.5865422866       -1.3484535838
 C          0.6311609243       -1.5695277317       -0.8919889575
 C          1.8600047032       -2.1374660984       -0.5755934568
 C          1.8698893462       -3.3961231999        0.0091086799
 C          0.6809207413       -4.0517690779        0.2829286493
 C         -0.5381613839       -3.4678612467       -0.0045632332
 C         -0.5599932498       -2.2074525577       -0.5880246801
 N         -1.7927468489       -1.5851414804       -0.8733909187
 S         -2.9533634480       -1.6480367379        0.3573260606
 O         -2.3547617076       -1.3720785360        1.6419508435
 O         -3.6477726443       -2.9079834057        0.2450251601
 C         -4.0429053919       -0.3230780026       -0.1232017037
 C         -4.1499616901        0.7962300463        0.6789969921
 C         -4.9917865277        1.8252723121        0.2845786811
 C         -5.7060896848        1.7169743748       -0.8986637821
 C         -5.5904113418        0.5844153942       -1.6917639194
 C         -4.7520494536       -0.4481513145       -1.3032838203
 H         -4.6378541298       -1.3487556960       -1.8835297973
 H         -6.1507334450        0.5029092988       -2.6090981892
 H         -6.3597486602        2.5189401148       -1.2032034967
 H         -5.0849892998        2.7046591704        0.9013111379
 H         -3.5772511196        0.8327504620        1.5919082519
 H         -1.6628323481       -0.6291188240       -1.1777157131
 H         -1.4697451867       -3.9544479302        0.2365137977
 H          0.7044877378       -5.0272957531        0.7452510183
 H          2.8054647942       -3.8571571106        0.2796723572
 C          3.1077847843       -1.3336878313       -0.8680484041
 H          3.2182472340       -1.2705418677       -1.9640985077
 C          4.3818099181       -1.9797236458       -0.3440745378
 C          5.5239802075       -1.1474668580        0.1554950777
 C          4.7255514494       -1.9759617151        1.1140890887
 H          5.1862302880       -2.8573179674        1.5359952521
 H          4.0396755394       -1.4774407346        1.7806677959
 H          5.3946958416       -0.0749276450        0.1727108487
 H          6.5281677930       -1.4612727412       -0.0876211416
 H          4.6521450716       -2.8669789791       -0.9080860700
 O          1.9473997725       -0.4634282833        1.6854495774
