  62
        -98.93292409
 C         -2.2443500956       -1.0403457315        0.2811780987
 C         -2.1335516019       -0.0782679156       -0.7509787874
 C         -2.1607740072        1.3431441972       -0.3391660400
 C         -2.3422212498        1.6475023963        0.9576319666
 C         -2.4476077679        3.0106621181        1.5880484430
 C         -3.7986575607        3.6936095236        1.3136048396
 C         -4.3191708401        3.5496267837       -0.1144005632
 H         -4.3882409916        2.4894278751       -0.3646496671
 H         -5.3331247163        3.9572300995       -0.1409846678
 C         -3.4989500206        4.2689176383       -1.1822811251
 H         -4.0139890459        4.1316948711       -2.1363733511
 H         -3.4839658448        5.3387362851       -0.9622263034
 C         -2.0555224816        3.7903034111       -1.3484411789
 H         -1.4254069374        4.1585878697       -0.5431537201
 H         -1.6678128343        4.2314829016       -2.2715534715
 C         -1.8937819754        2.2800733460       -1.4921748580
 H         -2.5213670204        1.9280892639       -2.3191476221
 H         -0.8605848560        2.0657439644       -1.7989470431
 H         -4.5398822998        3.2490186405        1.9818843532
 H         -3.7076712343        4.7513739748        1.5655276570
 H         -2.3422995430        2.8649938514        2.6654826501
 H         -1.6190014640        3.6311618334        1.2585506618
 O         -2.5145439458        0.6859878824        1.9105603234
 C         -2.4083684463       -0.6558952251        1.6127419605
 O         -2.5026752691       -1.4118554943        2.6033523659
 H          0.1390710473       -1.1413762312       -0.7263173548
 C          0.3985585859       -2.0161082388       -0.1497549595
 C         -0.5943088053       -2.8645211737        0.3176417874
 C         -0.2200436687       -3.9876351103        1.0460691135
 C          1.1150607134       -4.2443082297        1.3054962205
 C          2.0979933677       -3.3716890379        0.8742566776
 C          1.7327114420       -2.2450437575        0.1462118975
 N          2.6863530346       -1.3150106052       -0.3009029070
 S          2.2457790284        0.3195848999       -0.2091820069
 O          1.4822027728        0.5597089516        0.9946616160
 O          1.6332858033        0.7107620031       -1.4531982972
 C          3.8586532543        1.0727711777       -0.0839937354
 C          4.6017433235        1.2431490591       -1.2371687824
 C          5.8712471992        1.7905387866       -1.1410899732
 C          6.3742133636        2.1554784930        0.0990834107
 C          5.6162828055        1.9799875364        1.2470800030
 C          4.3463059678        1.4312527519        1.1583013516
 H          3.7171678846        1.2816721311        2.0213118389
 H          6.0080936965        2.2673064518        2.2094457054
 H          7.3622157309        2.5817803608        0.1713173106
 H          6.4621879576        1.9305749752       -2.0317266077
 H          4.1640679101        0.9527051976       -2.1780336180
 H          3.6039374157       -1.4718169791        0.0946056488
 H          3.1365849258       -3.5556865292        1.1033978884
 H          1.3918501407       -5.1205967033        1.8717412490
 H         -0.9842816729       -4.6468865746        1.4308572233
 C         -2.0457430272       -2.5326869551        0.0680364588
 H         -2.6354754909       -3.0281131806        0.8569118416
 C         -2.5503797004       -3.0475031815       -1.2709042117
 C         -1.6387743651       -3.4017860048       -2.4029834695
 C         -2.3468364922       -4.4850271670       -1.6497257890
 H         -3.1566268265       -5.0079400981       -2.1353396710
 H         -1.7564529506       -5.0982671408       -0.9863028068
 H         -1.9643139942       -3.1557424556       -3.4019009860
 H         -0.5768688289       -3.2797028951       -2.2536064824
 H         -3.5013862159       -2.6015399916       -1.5416474132
 O         -2.0205244085       -0.3611994399       -1.9719016906
