  62
        -98.93936758
 C          1.7662905888        1.1943873588       -0.0005530787
 C          2.5032469637        0.4250814537        0.9260977112
 C          3.0991615051       -0.8308023206        0.4336426726
 C          2.8715955624       -1.1960988885       -0.8420043387
 C          3.4044073013       -2.3982157268       -1.5753865696
 C          4.8845861962       -2.2499699216       -1.9651716012
 C          5.7851279654       -1.6760929809       -0.8744253282
 H          6.7746789260       -1.5173707977       -1.3107410012
 H          5.4031712323       -0.6994592231       -0.5718803737
 C          5.9553007369       -2.5588544041        0.3594107898
 H          6.6843098001       -2.0703468337        1.0108276846
 H          6.3724370417       -3.5218819262        0.0569497410
 C          4.6872517805       -2.8151833747        1.1761553712
 H          4.9966342550       -3.2429057502        2.1344311917
 H          4.0540030925       -3.5579227291        0.6980634657
 C          3.8748294994       -1.5655621617        1.5009958567
 H          3.1374905436       -1.8224531837        2.2723556905
 H          4.5309693665       -0.8209196981        1.9663341889
 H          5.2583899925       -3.2280569284       -2.2723464833
 H          4.9394789386       -1.5810747544       -2.8273333992
 H          3.2438270495       -3.2952642262       -0.9843334094
 H          2.8111288241       -2.4945761322       -2.4874721357
 O          2.1118738460       -0.4453721764       -1.6885547193
 C          1.5228200221        0.7411791168       -1.2966840399
 O          0.8321647056        1.2893674384       -2.1763452339
 O          2.6648503618        0.7718800623        2.1302382697
 C          1.1176668243        2.4878290375        0.4646512897
 C         -0.3767955449        2.2848789515        0.4631175643
 C         -1.2701715054        3.0487268740       -0.2752332641
 C         -2.6213464482        2.7440231465       -0.2750102202
 C         -3.1077444986        1.6725716276        0.4523711364
 C         -2.2219669419        0.9122191411        1.2042031854
 C         -0.8755874536        1.2268076233        1.2146680315
 H         -0.1889473484        0.6204224786        1.7934208073
 N         -2.7108008717       -0.2236317967        1.9096451453
 S         -2.6837915562       -1.6000864444        0.9309029790
 O         -2.9522190420       -2.7134651990        1.8159837709
 O         -1.4567281083       -1.6827868854        0.1666577349
 C         -4.0697438293       -1.3288002587       -0.1469918203
 C         -5.3405199920       -1.5645706980        0.3407831518
 C         -6.4278766543       -1.3163533784       -0.4813824931
 C         -6.2257055547       -0.8359999575       -1.7669068321
 C         -4.9430461438       -0.6038453767       -2.2402483867
 C         -3.8502654636       -0.8509980983       -1.4237370807
 H         -2.8352714191       -0.6806616497       -1.7482352179
 H         -4.7862307009       -0.2284464261       -3.2386765226
 H         -7.0727675798       -0.6408902039       -2.4054362834
 H         -7.4268470772       -1.4955992200       -0.1179820463
 H         -5.4460210269       -1.9414929410        1.3444729713
 H         -2.1596614817       -0.4258041319        2.7342630746
 H         -4.1562092609        1.4228371643        0.4497880918
 H         -3.3025779303        3.3434548993       -0.8588710837
 H         -0.9055176228        3.8740231697       -0.8641678081
 H          1.4448006583        2.6200406382        1.5065003927
 C          1.5845037375        3.6718373947       -0.3523151382
 C          1.4912288716        5.0539327681        0.2202224534
 C          2.8283916615        4.3966911558        0.0628464390
 H          3.4950329762        4.7567404717       -0.7061717960
 H          3.3356053674        4.0465496787        0.9501414099
 H          1.2414443863        5.8700682365       -0.4402831163
 H          1.0903941098        5.1540677183        1.2174777688
 H          1.4130862685        3.5421396787       -1.4144248394
