  62
        -98.94521221
 C         -1.5671043858       -1.0000665904        0.2798185063
 C         -2.8893755473       -1.1722858102        0.7592016996
 C         -3.9670965076       -0.7805862017       -0.1576908421
 C         -3.6513925330       -0.2889743543       -1.3697350193
 C         -4.6454153373        0.2076371569       -2.3785235026
 C         -4.9055551446        1.7108007858       -2.2072717690
 C         -5.2120059663        2.1247933357       -0.7678174322
 H         -4.3213089381        1.9669640250       -0.1548105264
 H         -5.4093856854        3.1990345452       -0.7739065293
 C         -6.4016377511        1.3893668376       -0.1347675425
 H         -7.0270373703        2.1184808310        0.3846326673
 H         -7.0136597820        0.9352747296       -0.9148538274
 C         -6.0148313740        0.3226640934        0.8912546877
 H         -6.9186515164        0.0252846867        1.4295977884
 H         -5.3250006310        0.7517403761        1.6224096501
 C         -5.3813233568       -0.9526149625        0.3210357873
 H         -6.0119547858       -1.3519742801       -0.4756923537
 H         -5.3369978050       -1.6901688391        1.1276548435
 H         -5.7381012297        1.9932320394       -2.8542959231
 H         -4.0179404900        2.2557636119       -2.5377550210
 H         -4.2411129447        0.0298720097       -3.3764600854
 H         -5.5750697347       -0.3474474995       -2.2691109163
 O         -2.3724960204       -0.1449865468       -1.7993480378
 C         -1.2973763708       -0.4822935411       -0.9875236000
 O         -0.1859349288       -0.2900120632       -1.5145367693
 O         -3.1552552886       -1.6326556190        1.9019979152
 C         -0.4164840751       -1.3555089347        1.2077099581
 C          0.2475044721       -0.0751124100        1.6523104083
 C         -0.4516845696        0.7881822538        2.4933239385
 C          0.1110180790        1.9802617868        2.9049819454
 C          1.3755455167        2.3449543465        2.4732326451
 C          2.0781645577        1.4957709450        1.6289964105
 C          1.5181000191        0.2870136793        1.2369948144
 H          2.0793761761       -0.3654247953        0.5930429179
 N          3.3712259860        1.8197772180        1.1786093204
 S          3.6544339497        1.7962258761       -0.4813787391
 O          4.8586944267        2.5865186980       -0.6423338444
 O          2.4989812083        2.2551911428       -1.2156550581
 C          4.0356990707        0.0989864944       -0.8543340627
 C          3.1945185383       -0.6397402140       -1.6629447567
 C          3.5232642064       -1.9599283330       -1.9318560694
 C          4.6750600697       -2.5124328851       -1.3928593351
 C          5.5090144250       -1.7537300028       -0.5848647555
 C          5.1896071386       -0.4334590658       -0.3128644533
 H          5.8113699316        0.1944341209        0.3031995712
 H          6.4027364587       -2.1878422018       -0.1665305569
 H          4.9213467748       -3.5414010728       -1.6036701786
 H          2.8700624328       -2.5498514501       -2.5556332333
 H          2.2882651658       -0.1876374018       -2.0367844001
 H          3.7392630382        2.6740512415        1.5744884630
 H          1.8132902853        3.2812834441        2.7860177207
 H         -0.4397246774        2.6371433805        3.5616640664
 H         -1.4443285412        0.5082698382        2.8186631635
 H         -0.8886694086       -1.8132681610        2.0887207998
 C          0.5333122738       -2.3544580540        0.5834006492
 C          1.5126168426       -3.0869362805        1.4498585328
 C          0.3482480267       -3.8164128266        0.8519922618
 H          0.5317151758       -4.5137582882        0.0487068817
 H         -0.4632482586       -4.1060071551        1.5035512809
 H          2.4995580691       -3.2802824012        1.0576442465
 H          1.4910849842       -2.8802373783        2.5090516029
 H          0.8536148164       -2.0707777694       -0.4114241590
