  62
        -98.94420718
 C          1.9482181980       -0.8341772400       -0.3704133867
 C          2.2584954897        0.3626670075        0.3195665618
 C          3.5824957216        0.9400734169        0.0391287812
 C          4.3926853842        0.3440789917       -0.8536275788
 C          5.7810863260        0.7996876376       -1.1948366699
 C          6.8253767580        0.1201040423       -0.2980052040
 C          6.4922593746        0.1810373891        1.1926492431
 H          5.5932613948       -0.4100290802        1.3813451350
 H          7.3123052403       -0.3012932159        1.7289354317
 C          6.2883848127        1.6006564278        1.7399672331
 H          6.8216371198        1.6902634733        2.6887764638
 H          6.7239811431        2.3283744694        1.0543405006
 C          4.8295260741        1.9718569105        2.0124767512
 H          4.8176298007        2.8983134177        2.5929151678
 H          4.3630336918        1.1962148147        2.6249553356
 C          3.9552399298        2.1981054815        0.7724793388
 H          3.0124588014        2.6412071170        1.1065906158
 H          4.4457117297        2.9051664305        0.1003479777
 H          6.9011610920       -0.9300317284       -0.5893509654
 H          7.7930516622        0.5925797817       -0.4762740941
 H          5.9825231274        0.5375712705       -2.2348918741
 H          5.8408553490        1.8808521845       -1.0855869117
 O          4.0483649578       -0.7857044242       -1.5216398549
 C          2.8303966764       -1.4011552014       -1.2959884626
 O          2.6489006823       -2.4357510293       -1.9678839105
 H         -0.8221979341        0.5835912725        0.6768299316
 C         -1.1124273027        0.2709022306       -0.3141011331
 C         -0.4644288509       -0.8012314672       -0.9100339354
 C         -0.8273539525       -1.1629878392       -2.2030458941
 C         -1.8151566509       -0.4701846113       -2.8801537572
 C         -2.4590053489        0.5993439758       -2.2829566818
 C         -2.0948536900        0.9739061020       -0.9966372685
 N         -2.7510836646        2.0612264355       -0.3788175544
 S         -4.3935725068        1.8511635153       -0.1188022288
 O         -5.0847112354        1.9358548501       -1.3803510671
 O         -4.7628753813        2.8290541185        0.8792481548
 C         -4.5217335288        0.1997443489        0.5418689437
 C         -4.7464236006       -0.8588715258       -0.3148048352
 C         -4.7470665679       -2.1457196934        0.1989452496
 C         -4.5236323997       -2.3506438911        1.5514064068
 C         -4.3043726138       -1.2758304726        2.3994314941
 C         -4.2955440633        0.0125600003        1.8908689152
 H         -4.1313354249        0.8750034514        2.5170620035
 H         -4.1363286407       -1.4376456567        3.4523102392
 H         -4.5207955173       -3.3538686163        1.9476322978
 H         -4.9177964444       -2.9832819226       -0.4580140244
 H         -4.9206453571       -0.6576543816       -1.3588298098
 H         -2.3036452438        2.3445611036        0.4819614159
 H         -3.2379971809        1.1464303962       -2.7893201864
 H         -2.0862615677       -0.7645575641       -3.8827343972
 H         -0.3163157885       -1.9889075168       -2.6773165968
 C          0.6232779934       -1.5604799509       -0.1895603228
 H          0.7456531495       -2.5268175854       -0.6958091418
 C          0.2844366718       -1.8160283744        1.2657777827
 C         -0.8384232532       -2.7532425169        1.5910274049
 C          0.5785504549       -3.1569338729        1.8646145169
 H          0.9154073190       -3.2000821478        2.8895935105
 H          1.0306025876       -3.9021812498        1.2263922692
 H         -1.4788169795       -2.5185668957        2.4268668136
 H         -1.3505006125       -3.2207450173        0.7638199627
 H          0.4205470634       -0.9516192809        1.9019437158
 O          1.4875717617        0.9335535784        1.1361914887
