  62
        -98.94492639
 C         -2.1877543503       -0.9960901501        0.5281625290
 C         -2.2598151202       -0.1643771704       -0.6159479112
 C         -3.0128490503        1.0851350796       -0.4465302517
 C         -3.5394913504        1.3936959899        0.7522707682
 C         -4.3130904905        2.6403404600        1.0865114577
 C         -5.8017331705        2.5691133398        0.7188892976
 C         -6.1076914903        2.6476500493       -0.7773207125
 H         -7.1831071203        2.8081466593       -0.8755352426
 H         -5.6082428003        3.5182515092       -1.2035931827
 C         -5.7219540302        1.3909778691       -1.5701084121
 H         -5.5748909502        0.5562264293       -0.8810240118
 H         -6.5417680501        1.1153420089       -2.2370737421
 C         -4.4692537201        1.5454024389       -2.4327368720
 H         -4.2671052200        0.5881724688       -2.9197332517
 H         -4.6494585401        2.2886883687       -3.2124621122
 C         -3.2127681102        1.9529087892       -1.6520164320
 H         -2.3431169601        1.8213467990       -2.3011710518
 H         -3.2730231403        3.0016523293       -1.3608180623
 H         -6.2182874505        1.6460093299        1.1283558578
 H         -6.2986349506        3.4066084899        1.2138804473
 H         -4.2312071007        2.7764083603        2.1671838577
 H         -3.8547963505        3.4984602499        0.5935941975
 O         -3.4034539805        0.5893097402        1.8410405684
 C         -2.7376853505       -0.6236352098        1.7536269889
 O         -2.6925126706       -1.2630028294        2.8253144891
 O         -1.7259876401       -0.4471406808       -1.7192695511
 C         -1.4443634103       -2.3185245501        0.4562930195
 C         -0.0020467902       -2.0638740501        0.0892429696
 C          0.6648177499       -2.7308514204       -0.9290516201
 C          1.9815845299       -2.4204437205       -1.2239128301
 C          2.6614481298       -1.4511419702       -0.5100904303
 C          2.0062590497       -0.7839940499        0.5170244994
 C          0.6895538796       -1.0982388199        0.8111025894
 H          0.1775566995       -0.5728184297        1.6093944392
 N          2.6941589395        0.1990519403        1.2565813092
 S          3.3321902696        1.4924703801        0.3892192189
 O          3.4174700694        2.5788747304        1.3419068686
 O          2.5762786297        1.7511632397       -0.8145693413
 C          4.9782430497        0.9524320100       -0.0214589908
 C          5.8335431096        0.6288005704        1.0137178094
 C          7.1197895496        0.2106423403        0.7122624597
 C          7.5268707798        0.1257011800       -0.6110335502
 C          6.6567819999        0.4566572396       -1.6385741004
 C          5.3683569398        0.8752715696       -1.3440208207
 H          4.6545814799        1.1378607194       -2.1085936609
 H          6.9748437700        0.3900202393       -2.6665872004
 H          8.5285015398       -0.2000608101       -0.8431592600
 H          7.7992537795       -0.0474452494        1.5084412098
 H          5.4775915294        0.7130374207        2.0269231394
 H          2.1610482694        0.5490388305        2.0404466491
 H          3.6847026198       -1.2035208802       -0.7405911703
 H          2.4850164100       -2.9409042607       -2.0242427899
 H          0.1504640500       -3.4848332306       -1.5015703600
 H         -1.4683051004       -2.7369802598        1.4732427996
 C         -2.1544899701       -3.2717799004       -0.4814151203
 C         -2.0401783801       -4.7519758803       -0.2790367398
 C         -3.3268178201       -4.0500908303        0.0327206598
 H         -4.1717626701       -4.2024132105       -0.6219227302
 H         -3.5983438303       -3.9099317700        1.0692121798
 H         -2.0050172700       -5.3905451506       -1.1486365096
 H         -1.4395132002       -5.0980395801        0.5483675004
 H         -2.2115130200       -2.8929268407       -1.4952774304
