  62
        -98.93040983
 C          1.1051998908        1.2510555040        0.7605565374
 C          2.1001318905        1.1985949813       -0.2414274107
 C          3.2680110106        0.3331444992        0.0286790114
 C          3.2979877809       -0.3824658418        1.1679124503
 C          4.3465654086       -1.3590252043        1.6317586881
 C          4.2648826050       -2.7052587590        0.8961175867
 C          4.1050476583       -2.5993158781       -0.6180584665
 H          3.9736229753       -3.6124647847       -1.0078637933
 H          3.1882285304       -2.0501162706       -0.8424671850
 C          5.2807156184       -1.9613132533       -1.3550639556
 H          6.1884685183       -2.5287723238       -1.1383705051
 H          5.0781991955       -2.0547015269       -2.4250145148
 C          5.5423355220       -0.4841348377       -1.0504594304
 H          6.2089873144       -0.1051526653       -1.8304881613
 H          6.0702661618       -0.3629382772       -0.1083096596
 C          4.2987591588        0.3985904252       -1.0726066126
 H          4.6160288410        1.4475741240       -1.1131829343
 H          3.7525507847        0.2277690044       -2.0073700365
 H          3.3994078813       -3.2504737774        1.2822536833
 H          5.1612219544       -3.2820268905        1.1316323224
 H          4.1637329747       -1.5335376313        2.6945410013
 H          5.3364878396       -0.9239305400        1.5321348953
 O          2.2879091744       -0.3345379149        2.0850871199
 C          1.1752603608        0.4614705042        1.9061474047
 O          0.3280825268        0.3853381470        2.8216943520
 O          2.0271683013        1.8353250014       -1.3231211716
 C         -0.1318088630        2.1200548353        0.5710735133
 C         -0.8074270178        1.7014673286       -0.7153515161
 C         -1.2189443923        2.4938115407       -1.7785729279
 C         -1.8568090830        1.9286701648       -2.8724241000
 C         -2.1275926778        0.5755748448       -2.9317540051
 C         -1.7198206401       -0.2319813671       -1.8756743538
 C         -1.0652215604        0.3345488276       -0.7976698913
 H         -0.7239594316       -0.3117385447       -0.0036985761
 N         -1.9656442721       -1.6128801814       -1.8719298699
 S         -2.2408701603       -2.3971973900       -0.4213837665
 O         -0.9989456931       -2.6086815432        0.2800577859
 O         -2.9583090865       -3.5967924230       -0.8005923094
 C         -3.3274587244       -1.3150203758        0.4919323369
 C         -2.9024197989       -0.6836910577        1.6427222565
 C         -3.7713451486        0.1830003617        2.2884404876
 C         -5.0410992461        0.4014417340        1.7784012418
 C         -5.4573944127       -0.2496417491        0.6267617591
 C         -4.5937508737       -1.1142429499       -0.0241932629
 H         -4.8845516569       -1.6467138622       -0.9150545962
 H         -6.4475457913       -0.0828933693        0.2345148648
 H         -5.7088664755        1.0812046077        2.2836051391
 H         -3.4395084009        0.6856032890        3.1831790160
 H         -1.9058067310       -0.8594028849        2.0193695539
 H         -2.5628711025       -1.9481514530       -2.6128469658
 H         -2.6323335698        0.1452417745       -3.7827001870
 H         -2.1559542892        2.5643346540       -3.6920060932
 H         -1.0359624277        3.5523598487       -1.7906734273
 H         -0.8180855887        1.8183707076        1.3813912002
 C          0.2416801277        3.5650624392        0.8635212999
 C          0.7660061070        4.5515188315       -0.1313859063
 C         -0.5781518338        4.7671198947        0.5003505472
 H         -0.6647780318        5.5507954978        1.2387516891
 H         -1.4709223626        4.6284296255       -0.0862268093
 H          1.5831960261        5.1868145146        0.1792055250
 H          0.8410063361        4.2382615483       -1.1594168874
 H          0.7089902679        3.6047163333        1.8461945464
