  62
        -98.93504187
 C         -2.4911576677       -1.4618387142        0.2439982117
 C         -2.7481389676       -0.5842092403       -0.8351679608
 C         -3.6579215506        0.5461301921       -0.5629334315
 C         -4.1659416438        0.7153717357        0.6711137966
 C         -5.1306605977        1.7463522138        1.2180714841
 C         -5.3848817111        3.0535822247        0.4712180636
 C         -4.1774393716        3.9851616028        0.3759572600
 H         -4.4574374285        4.8427446153       -0.2397873282
 H         -3.9416146485        4.3565591367        1.3763704502
 C         -2.9054643606        3.3617627024       -0.1946006244
 H         -2.1371003800        4.1394966238       -0.2319392065
 H         -2.5364390183        2.5882720236        0.4832633568
 C         -3.0379642330        2.7721986426       -1.5980379815
 H         -3.4492231836        3.5239881474       -2.2744812146
 H         -2.0292424784        2.5287116511       -1.9440415359
 C         -3.8889305938        1.4934197279       -1.7049440336
 H         -4.9464060803        1.7279982293       -1.7990201850
 H         -3.5869827896        0.9630531669       -2.6127049023
 H         -6.1641683710        3.5811939175        1.0277908293
 H         -5.7853761337        2.8529483361       -0.5180775923
 H         -6.0876859243        1.2267270192        1.3391115526
 H         -4.7739706267        1.9751658552        2.2272155170
 O         -3.8800603243       -0.1512726733        1.6860537321
 C         -3.0462183441       -1.2381315541        1.5062727006
 O         -2.8820508411       -1.9295176711        2.5310984559
 H         -0.1715629044       -0.8342385047       -1.2273918357
 C          0.4195864299       -1.2813159821       -0.4413786790
 C         -0.1479752789       -2.2686523704        0.3533648698
 C          0.6208193097       -2.8306813295        1.3648456691
 C          1.9247973033       -2.4135101347        1.5710055263
 C          2.4866268710       -1.4312870186        0.7750974229
 C          1.7236218674       -0.8591136650       -0.2346407525
 N          2.2835917816        0.1449907412       -1.0492908503
 S          2.8797311504        1.5047736496       -0.2601639414
 O          2.1983163170        1.7284855403        0.9948761329
 O          2.8107067263        2.5751039324       -1.2309933610
 C          4.5878362896        1.0964098587        0.0327304874
 C          5.0947366299        1.1256573254        1.3169701751
 C          6.4281514885        0.8036757680        1.5182397417
 C          7.2260747866        0.4608643053        0.4374484605
 C          6.7019774916        0.4387785286       -0.8466650689
 C          5.3703475772        0.7603146320       -1.0548272881
 H          4.9239566835        0.7581187206       -2.0351872811
 H          7.3256183581        0.1714521013       -1.6844115920
 H          8.2625991742        0.2090757536        0.5970167726
 H          6.8371831908        0.8203626748        2.5156865032
 H          4.4339075813        1.3915923572        2.1266762862
 H          1.6691667508        0.4243608016       -1.8018134847
 H          3.5001846947       -1.1004558465        0.9334339202
 H          2.5099255509       -2.8570001646        2.3620710458
 H          0.1832056006       -3.5843978410        2.0030899555
 C         -1.5825557737       -2.6780024535        0.1394350930
 H         -1.8733323670       -3.3214424054        0.9842705795
 C         -1.8047400486       -3.4760665700       -1.1394120509
 C         -0.7603382048       -3.6685201973       -2.1944802221
 C         -1.1392310703       -4.8106857615       -1.3039515931
 H         -1.7104662374       -5.6280000909       -1.7170701732
 H         -0.4311089815       -5.1046499689       -0.5436942745
 H         -1.0882589104       -3.6782659664       -3.2228793397
 H          0.2060983549       -3.2116591725       -2.0512610051
 H         -2.8284177179       -3.3988374537       -1.4907850833
 O         -2.2571448406       -0.7163697230       -1.9872332809
