  62
        -98.93096608
 C         -2.3957904307       -1.2615001650        0.3277642394
 C         -2.8257678966       -0.0511786404        0.9239906808
 C         -4.0177547500        0.5989433245        0.3514858730
 C         -4.6073424267        0.0412757277       -0.7211323933
 C         -5.8270833813        0.5018955403       -1.4785425167
 C         -5.9240892359        2.0048276427       -1.7821408245
 C         -7.0079060463        2.7205796732       -0.9740427586
 H         -7.3112990578        3.6192697468       -1.5157160689
 H         -7.8813973673        2.0684302938       -0.9100464884
 C         -6.5934278142        3.1485478383        0.4326858189
 H         -5.8930777564        3.9839543905        0.3647180757
 H         -7.4871341213        3.5148527360        0.9434186449
 C         -5.9543523402        2.0531357210        1.2886233519
 H         -6.0795457864        2.3331509323        2.3368126473
 H         -6.4744671654        1.1062311423        1.1482559031
 C         -4.4510379703        1.8688168004        1.0315822047
 H         -3.9119667172        1.8689653655        1.9843052778
 H         -4.0601813572        2.7215896204        0.4684748586
 H         -4.9566322447        2.4787010148       -1.6224848077
 H         -6.1662605883        2.1150881508       -2.8404360216
 H         -6.7163075079        0.1761900138       -0.9330017987
 H         -5.8102447027       -0.0649854363       -2.4121271751
 O         -4.1466759216       -1.1127049918       -1.2788098846
 C         -3.0423065788       -1.7943848269       -0.7873162622
 O         -2.7665708590       -2.8245057067       -1.4267770496
 O         -2.2387791725        0.4628333077        1.9163204038
 C         -1.1824445941       -1.9303136454        0.9487231458
 C          0.0784134556       -1.4226810131        0.2974326672
 C          0.2640506722       -1.5076245164       -1.0794830275
 C          1.4218226378       -1.0226110775       -1.6589674478
 C          2.4111265776       -0.4390322922       -0.8855782826
 C          2.2249729869       -0.3267469858        0.4851271443
 C          1.0654463649       -0.8262736915        1.0668474611
 H          0.9187900998       -0.7277545004        2.1339589005
 N          3.2199536610        0.2609623326        1.2800104912
 S          3.9972189049        1.6483550504        0.7461757194
 O          4.4908418131        2.2829037205        1.9485999110
 O          3.1435890200        2.4486789492       -0.1002298659
 C          5.3787821673        1.0223307655       -0.1876634718
 C          5.6081433232        1.4824637672       -1.4694618720
 C          6.6950822866        0.9891921561       -2.1745817097
 C          7.5295397707        0.0502325646       -1.5880538832
 C          7.2873448124       -0.3993774806       -0.2984938795
 C          6.2035241902        0.0907292852        0.4121290594
 H          5.9836070717       -0.2311124838        1.4162461900
 H          7.9385138542       -1.1297515553        0.1540697195
 H          8.3735663312       -0.3333316692       -2.1392277712
 H          6.8850937780        1.3382104852       -3.1768878607
 H          4.9293834585        2.2088676645       -1.8878449672
 H          2.9777655819        0.3319499623        2.2576194991
 H          3.3106238221       -0.0545692144       -1.3374664201
 H          1.5570224956       -1.0988709342       -2.7273220335
 H         -0.5103884741       -1.9541411856       -1.6851489595
 H         -1.1768607737       -1.5765304046        1.9922025702
 C         -1.2769966755       -3.4488504252        0.9879918660
 C         -0.3845013120       -4.3620953204        0.2077497582
 C         -0.2123885007       -4.2398425114        1.6900004372
 H         -0.5086709765       -5.0645016383        2.3202439089
 H          0.6503948449       -3.6970091050        2.0466141137
 H         -0.8248860589       -5.2615735806       -0.1942906911
 H          0.3674340682       -3.9247807280       -0.4293385280
 H         -2.2998554356       -3.7845962092        1.1237769406
