  62
        -98.93927542
 C          1.3839988470        0.7664605749        0.2359252274
 C          1.9513569531       -0.4153862857        0.7776989107
 C          2.9593587612       -1.0864546362       -0.0502434273
 C          3.2433872207       -0.6050678653       -1.2736488959
 C          4.2280501204       -1.1914131112       -2.2485996131
 C          5.6810904125       -0.7612569755       -2.0047247877
 C          6.3489842578       -1.3870113789       -0.7794592495
 H          6.2301921949       -2.4704116967       -0.8159653436
 H          7.4172695886       -1.1743922561       -0.8541659413
 C          5.8327278782       -0.8547997209        0.5647617639
 H          5.2974238055        0.0837222383        0.4023249809
 H          6.6796478587       -0.6300509793        1.2168981510
 C          4.9213360893       -1.8211827551        1.3213533497
 H          5.4874412652       -2.7105931976        1.6064793651
 H          4.5843693952       -1.3285239810        2.2369395244
 C          3.6799932550       -2.2628767322        0.5353414384
 H          3.9610991838       -2.9666855794       -0.2478717872
 H          2.9953817311       -2.7607508197        1.2262709058
 H          5.7142648793        0.3276641820       -1.9219725191
 H          6.2564356642       -1.0439364147       -2.8893708216
 H          4.1616569459       -2.2797694882       -2.2268193654
 H          3.9279641486       -0.8448423918       -3.2400291511
 O          2.6235728883        0.4893818847       -1.7889636014
 C          1.6888366491        1.2092820348       -1.0519224715
 O          1.2129749097        2.1849626883       -1.6610940031
 H         -0.9110192354       -0.2516465507       -0.4765481199
 C         -1.4346985230        0.6973080522       -0.4610094933
 C         -0.9036541744        1.7489757124        0.2765627248
 C         -1.5900746347        2.9561170523        0.2826608436
 C         -2.7723819836        3.0999395861       -0.4247295427
 C         -3.2981440927        2.0476740870       -1.1516909127
 C         -2.6116252052        0.8423018035       -1.1761689214
 N         -3.1677146899       -0.2545014246       -1.8858657055
 S         -4.3520520013       -1.0546488457       -1.0055697342
 O         -4.6464930768       -2.2671640399       -1.7348338366
 O         -5.4507117728       -0.1489858110       -0.7921416940
 C         -3.5505327853       -1.4358548891        0.5410843377
 C         -3.5383471373       -0.4823917594        1.5395402849
 C         -2.7929564822       -0.7217721177        2.6829188965
 C         -2.0725368956       -1.8997416355        2.8055510160
 C         -2.1005096417       -2.8499844089        1.7964087240
 C         -2.8389409859       -2.6142317991        0.6481098333
 H         -2.8810318027       -3.3235787475       -0.1635656473
 H         -1.5366347198       -3.7636623159        1.8960154670
 H         -1.4769247597       -2.0753988263        3.6873268476
 H         -2.7654939847        0.0164957101        3.4681507945
 H         -4.1071934620        0.4232865328        1.4046380415
 H         -2.4699442048       -0.9303944735       -2.1659808565
 H         -4.2271485706        2.1343976269       -1.6909095542
 H         -3.2917968664        4.0459184043       -0.4078832060
 H         -1.1963438966        3.7937622528        0.8342733308
 C          0.3480028445        1.4878200374        1.0762848707
 H          0.0834366318        0.7521976911        1.8562284114
 C          0.8722775954        2.7168003270        1.8056381395
 C          2.3408568120        2.9326041927        2.0137334369
 C          1.5762122460        3.8289518514        1.0889520582
 H          1.3853806191        4.8448323061        1.4030630619
 H          1.7238262155        3.7192826664        0.0262202978
 H          2.6717886015        3.3283758920        2.9623156827
 H          3.0214390421        2.2142742174        1.5796327975
 H          0.2307605098        3.0041550770        2.6326914812
 O          1.6192864274       -0.8919135001        1.8942765732
