  62
        -98.95003694
 C         -1.9046422965       -1.0370472028        0.0228404577
 C         -1.3312600885       -1.8156798673       -1.0126435865
 C         -0.2608420741       -2.7344015793       -0.6069761840
 C          0.0827306772       -2.8292282323        0.6904880026
 C          1.1078979301       -3.7650433186        1.2721899986
 C          2.5531686287       -3.2540305297        1.2014208390
 C          3.1754263040       -3.2620171630       -0.1948541766
 H          4.2467201616       -3.0922310829       -0.0721126310
 H          3.0504349224       -4.2468885586       -0.6461212867
 C          2.6128434133       -2.1876442782       -1.1347678181
 H          2.0948180858       -1.4223773350       -0.5527114469
 H          3.4305485143       -1.6779200453       -1.6504572301
 C          1.6608805986       -2.7055120983       -2.2130211662
 H          2.2082240700       -3.3401299754       -2.9143709774
 H          1.2865514723       -1.8374193241       -2.7633317641
 C          0.4582849491       -3.4950590228       -1.6786682547
 H         -0.2419611684       -3.6509116058       -2.5033916169
 H          0.7831926350       -4.4671396133       -1.3066849817
 H          3.1557570462       -3.8955080204        1.8482984153
 H          2.5904147171       -2.2396791402        1.6047575033
 H          1.0398914733       -4.7318894538        0.7723297969
 H          0.8418729363       -3.8982660204        2.3230189590
 O         -0.5134374549       -2.0856821332        1.6592860847
 C         -1.4833107606       -1.1400422963        1.3483237425
 O         -1.8813327097       -0.4816815971        2.3271356841
 O         -1.7053531391       -1.7525127243       -2.2146981867
 C         -2.9576505185       -0.0004801013       -0.3343375385
 C         -2.3787092742        1.3701324910       -0.0777525654
 C         -2.9232054291        2.2926411603        0.8050844801
 C         -2.2883220469        3.5030341031        1.0261356682
 C         -1.0993407998        3.8093433441        0.3903545827
 C         -0.5504949791        2.8971704896       -0.5055928993
 C         -1.2057964987        1.7003787645       -0.7476569898
 H         -0.7845682941        1.0011394385       -1.4558912369
 N          0.6499131735        3.1867767619       -1.1768932276
 S          1.8598552683        2.0488193233       -1.3568402825
 O          2.9632790047        2.7910479253       -1.9262040378
 O          1.3805418651        0.9301078228       -2.1241240434
 C          2.2916967936        1.5408894511        0.2978774960
 C          1.4466640717        0.6952302944        0.9882029100
 C          1.7648486563        0.3402312779        2.2897355701
 C          2.9249943999        0.8253033325        2.8737538453
 C          3.7679573461        1.6691234410        2.1661294478
 C          3.4470737186        2.0373666721        0.8695337665
 H          4.0714859487        2.6910385768        0.2823435707
 H          4.6704962190        2.0427347531        2.6222309571
 H          3.1699523889        0.5411332208        3.8850046982
 H          1.0938986778       -0.3080645974        2.8328903306
 H          0.5513958621        0.3244743278        0.5129031284
 H          1.0484869506        4.0851907464       -0.9450028116
 H         -0.5983548359        4.7464705025        0.5798010602
 H         -2.7188923882        4.2121227827        1.7166590347
 H         -3.8362478704        2.0610830762        1.3276536356
 H         -3.1145842613       -0.1075818284       -1.4178127495
 C         -4.2647345521       -0.2658327484        0.3792410023
 C         -5.5452255953        0.2674687218       -0.1880846889
 C         -5.2551639564       -1.2015255867       -0.2437475815
 H         -5.8134498307       -1.8641810351        0.4003288676
 H         -4.9955241275       -1.6376796622       -1.1975301398
 H         -6.3076515444        0.6131321512        0.4932907142
 H         -5.4872062552        0.8301712742       -1.1076096987
 H         -4.1564480630       -0.3014537634        1.4569063711
