  62
        -98.94033051
 C          2.5842824756        1.0555034780       -0.2407193679
 C          3.6078058360        0.5727886162        0.6189414297
 C          4.3828026387       -0.5765339800        0.1374364461
 C          4.1104928342       -1.0864796108       -1.0771036513
 C          4.7796674899       -2.2893466259       -1.6744481843
 C          4.0152760131       -3.5756679542       -1.3309523877
 C          3.6746994920       -3.7145225329        0.1529918086
 H          2.9636740525       -2.9328338606        0.4308298583
 H          3.1648885612       -4.6718281186        0.2810303484
 C          4.8880446207       -3.6519510450        1.0913725185
 H          4.7989042587       -4.4492946976        1.8321415142
 H          5.8029845804       -3.8353838695        0.5269048981
 C          5.0249594757       -2.3392469739        1.8651254028
 H          5.7740624348       -2.4827392693        2.6483410924
 H          4.0780476309       -2.1033224667        2.3573964290
 C          5.4548015596       -1.1201865487        1.0392668852
 H          6.3535518308       -1.3606809316        0.4677656868
 H          5.6964606318       -0.3137162716        1.7376423415
 H          4.6158684471       -4.4293968792       -1.6499804355
 H          3.0818182423       -3.5854373960       -1.8984946220
 H          4.8016641743       -2.1683427113       -2.7588022310
 H          5.8013019782       -2.3509764448       -1.3046713147
 O          3.1461274191       -0.5828415162       -1.8853798989
 C          2.3498480898        0.4829045922       -1.4906436607
 O          1.4974053589        0.7998316312       -2.3459626150
 O          3.8630845961        1.0876248243        1.7401352108
 C          1.7735035556        2.2345173022        0.2709593424
 C          0.4351205388        1.7985270902        0.8202515613
 C          0.1184169993        1.9958993577        2.1593213465
 C         -1.1171067624        1.6156314986        2.6520177567
 C         -2.0556830534        1.0211383604        1.8274132228
 C         -1.7488642827        0.8132842162        0.4889909934
 C         -0.5119999599        1.2096849820       -0.0045854382
 H         -0.2745868669        1.0434746689       -1.0451581357
 N         -2.6584360213        0.1669403680       -0.3662969433
 S         -4.2752005513        0.6092753104       -0.4869707946
 O         -4.5266837127        0.9795841693       -1.8631958380
 O         -4.6049310383        1.5919414400        0.5156936066
 C         -5.1267009341       -0.9186964247       -0.1354172550
 C         -4.9213984037       -1.5334749801        1.0841563718
 C         -5.5844745695       -2.7184001828        1.3598042349
 C         -6.4391128231       -3.2684526778        0.4161419186
 C         -6.6338745301       -2.6418434771       -0.8047478340
 C         -5.9720347754       -1.4564888894       -1.0856049122
 H         -6.0920286312       -0.9368349917       -2.0223402896
 H         -7.2967257265       -3.0712596144       -1.5387039285
 H         -6.9541035507       -4.1908537112        0.6336594445
 H         -5.4313236624       -3.2088741192        2.3077497673
 H         -4.2469219661       -1.0839690477        1.7939732593
 H         -2.2819295060        0.0269281531       -1.2929905900
 H         -3.0260787256        0.7486091560        2.2072143231
 H         -1.3527298930        1.7798497138        3.6926257402
 H          0.8509859620        2.4440348310        2.8147794604
 H          2.3592600412        2.6384587381        1.1077385863
 C          1.5945319877        3.3337798118       -0.7584717584
 C          1.2962267618        4.7251985956       -0.2901937197
 C          2.6362952179        4.4032013448       -0.8792419526
 H          2.8746321925        4.7803962734       -1.8623980382
 H          3.4861475171        4.3499914819       -0.2144217533
 H          0.6100615950        5.3263250968       -0.8669920403
 H          1.2378530271        4.8925698664        0.7746734033
 H          1.1207330813        2.9978103101       -1.6717874857
