  62
        -98.93790595
 C         -1.4530150574       -0.8360681711       -0.0770795637
 C         -2.7250297701       -1.4525032920       -0.0572663821
 C         -3.8497837384       -0.5994317833        0.3560820820
 C         -3.6096221703        0.6792241714        0.7000701727
 C         -4.6564600977        1.6935338373        1.0645840727
 C         -5.3572209642        2.2076987575       -0.2092241617
 C         -6.8383334901        1.8413964251       -0.3056135886
 H         -7.1647112445        2.0628904803       -1.3240369038
 H         -7.4079227543        2.4836374658        0.3694665195
 C         -7.1895285417        0.3875252849        0.0248439192
 H         -8.2050903634        0.2154090016       -0.3382004715
 H         -7.2202589112        0.2539760621        1.1072673517
 C         -6.2649693620       -0.6797323741       -0.5750823579
 H         -5.7659758155       -0.2998636517       -1.4668795432
 H         -6.8814799199       -1.5236348584       -0.8916654114
 C         -5.2112163895       -1.2365433273        0.4005876519
 H         -5.0346270132       -2.2890884383        0.1593453850
 H         -5.6016510863       -1.1957588262        1.4214066542
 H         -4.8260493009        1.8097887320       -1.0763485158
 H         -5.2707903798        3.2941142720       -0.2592622506
 H         -5.3785788435        1.2490995706        1.7458657250
 H         -4.1508232478        2.5121548239        1.5768427501
 O         -2.3686018807        1.2309055730        0.6825145141
 C         -1.2574666501        0.4939971979        0.2958623768
 O         -0.1847234605        1.1214984347        0.3294960234
 H          2.4629549744       -1.1303355959       -0.7191291750
 C          2.1384253693       -1.3155750385        0.2900249160
 C          0.8134135687       -1.6139663238        0.5628936661
 C          0.4511206211       -1.8942853168        1.8784375683
 C          1.3865718078       -1.8509161820        2.8930642067
 C          2.7022550578       -1.5164857007        2.6219012093
 C          3.0773550482       -1.2508917398        1.3112279054
 N          4.4042551651       -0.9276025075        1.0017912478
 S          4.7777215798        0.0505617904       -0.2969876495
 O          4.6726286106       -0.6968708716       -1.5256372791
 O          6.0992016142        0.5545045471        0.0140748226
 C          3.6055521944        1.3941241570       -0.2913062157
 C          2.9021200812        1.6844849086       -1.4413093128
 C          2.0138091209        2.7465658696       -1.4345804013
 C          1.8424379329        3.4943639604       -0.2817916275
 C          2.5578638744        3.1914869456        0.8651492033
 C          3.4502527673        2.1331220915        0.8634744831
 H          4.0226140661        1.8776202189        1.7407392067
 H          2.4155225286        3.7724094780        1.7623059540
 H          1.1404165571        4.3130416016       -0.2755400719
 H          1.4498251739        2.9802196292       -2.3239633923
 H          3.0585819952        1.0715332153       -2.3154077230
 H          5.0064004880       -0.7612396767        1.7937734524
 H          3.4317411257       -1.4670434286        3.4156565073
 H          1.0887638667       -2.0681548773        3.9078790829
 H         -0.5798721645       -2.1397508165        2.0946556484
 C         -0.2442646443       -1.6438778066       -0.5114759449
 H         -0.6014456765       -2.6785699000       -0.6218550497
 C          0.2528682832       -1.1507219031       -1.8543064102
 C          0.9753066326       -2.0789779483       -2.7828198707
 C         -0.4170828084       -1.6287540782       -3.1060329171
 H         -0.5597766287       -0.9284371763       -3.9153117847
 H         -1.2228322028       -2.3400042244       -2.9968351611
 H          1.1159974294       -3.0992237665       -2.4588693612
 H          1.7971251744       -1.6912836951       -3.3665917867
 H          0.5687449343       -0.1133993488       -1.8200384047
 O         -2.9109506147       -2.6619364572       -0.3637631990
