  62
        -98.93875581
 C         -1.9543864086       -1.5489825815       -0.0346559380
 C         -1.7467967709       -0.2673133254       -0.5977949049
 C         -2.9248749071        0.6173024183       -0.6407181753
 C         -4.1064200491        0.1684975529       -0.1834738228
 C         -5.4372476700        0.8783169506       -0.1782671580
 C         -5.4510985005        2.3475549290        0.2675935325
 C         -4.3929994830        2.7188984777        1.3167637106
 H         -4.8805236027        3.2423771450        2.1414835503
 H         -3.9388475724        1.8159778169        1.7285310128
 C         -3.2996040324        3.6341894929        0.7611223192
 H         -3.7701447566        4.3996649704        0.1399947035
 H         -2.8136518751        4.1452546507        1.5957840096
 C         -2.2016230586        2.9403474686       -0.0452181028
 H         -1.5630425250        2.3534562455        0.6205321005
 H         -1.5764477842        3.7187013344       -0.4877938567
 C         -2.6853655132        2.0041841301       -1.1641479592
 H         -3.5653842309        2.4045996788       -1.6618981962
 H         -1.8779346376        1.9115439080       -1.8952761256
 H         -6.4464611248        2.5466754362        0.6683522998
 H         -5.3289078207        2.9927976144       -0.6013231854
 H         -6.0714218355        0.2876196490        0.4871399018
 H         -5.8670749187        0.8043075190       -1.1813851276
 O         -4.2609906528       -1.0821717243        0.3382089838
 C         -3.1972470571       -1.9616687080        0.4395664068
 O         -3.4806259780       -3.0587377615        0.9633996555
 O         -0.6396205971        0.1177727538       -1.0518706987
 C         -0.7939550789       -2.5222459709        0.0661542637
 C          0.3550248618       -1.8624783161        0.7876230965
 C          0.1139147344       -1.2549926640        2.0173667277
 C          1.1264070488       -0.6092075881        2.6998036044
 C          2.4051954748       -0.5550464060        2.1725752655
 C          2.6578421625       -1.1641095742        0.9519690078
 C          1.6395254816       -1.8193927237        0.2709201777
 H          1.8561277736       -2.2850718193       -0.6776690508
 N          3.9551577899       -1.1097003489        0.4054735030
 S          4.6393362163        0.4086725704        0.2146186851
 O          5.7084069124        0.2205043450       -0.7406138940
 O          5.0270626383        0.9209029037        1.5048242826
 C          3.3463059284        1.4137517363       -0.4873218439
 C          3.0616564181        1.2634801699       -1.8296589918
 C          2.0251861423        1.9968126833       -2.3809889284
 C          1.2897165401        2.8572035763       -1.5821765980
 C          1.5851915439        2.9941660258       -0.2358813677
 C          2.6219054368        2.2641517553        0.3216665523
 H          2.8838938192        2.3439934252        1.3640914017
 H          1.0072276488        3.6615405502        0.3833228916
 H          0.4791660852        3.4228939664       -2.0137923127
 H          1.7873328232        1.8896028130       -3.4271618903
 H          3.6613645547        0.5895052143       -2.4207713988
 H          4.0469355164       -1.6337925908       -0.4534225898
 H          3.2061049382       -0.0464599232        2.6842185306
 H          0.9199372805       -0.1402657157        3.6502671173
 H         -0.8873104906       -1.2884146679        2.4264449339
 H         -1.1502612954       -3.3631805166        0.6785533705
 C         -0.4365893744       -3.0404815577       -1.3115906160
 C          0.1972773612       -4.3890184208       -1.4720445546
 C         -1.2280715224       -4.1764527527       -1.8833464580
 H         -1.4655593420       -4.1617439162       -2.9365318461
 H         -2.0102877078       -4.5946005536       -1.2665105868
 H          0.9366333227       -4.5252001010       -2.2472204172
 H          0.3861533160       -4.9630270309       -0.5774358121
 H         -0.1401995503       -2.2483339344       -1.9900549586
