  62
        -98.94130548
 C         -2.4437481473       -1.0426923551       -0.5288625604
 C         -3.4669113570       -0.5337303149        0.3150429363
 C         -3.9895035277        0.7974204761       -0.0135728307
 C         -3.4902076739        1.4518062405       -1.0774264898
 C         -3.8850624056        2.8368580592       -1.4985140518
 C         -2.9797375865        3.8927414367       -0.8489144046
 C         -2.8128641121        3.7204127469        0.6610649136
 H         -2.2633390017        2.7957416003        0.8564209914
 H         -2.1841018827        4.5410600891        1.0138283153
 C         -4.1301774671        3.7081556380        1.4495537427
 H         -4.0140549084        4.3408198656        2.3319453372
 H         -4.9278385181        4.1393931644        0.8436603236
 C         -4.5606780249        2.3265788958        1.9459618164
 H         -3.7277633551        1.8511239820        2.4707068783
 H         -5.3688633271        2.4622085142        2.6695202672
 C         -5.0679763484        1.3589520855        0.8693345272
 H         -5.5156145768        0.5005490629        1.3784683942
 H         -5.8404795665        1.8461880842        0.2711171718
 H         -1.9900083408        3.8325347430       -1.3081062064
 H         -3.3940548345        4.8802168869       -1.0603510480
 H         -3.7893231851        2.9072732091       -2.5832869256
 H         -4.9227432612        3.0127962802       -1.2218453214
 O         -2.5229619955        0.9313901625       -1.8713905028
 C         -1.9611322123       -0.3106072843       -1.6136646768
 O         -1.0683688979       -0.6227609875       -2.4286230493
 O         -3.9272518384       -1.1732599802        1.2984302520
 C         -1.8884486060       -2.4117118889       -0.1676330819
 C         -0.5986647101       -2.2657092363        0.6047578440
 C         -0.5138114434       -2.6506639077        1.9374824839
 C          0.6612885280       -2.4775751370        2.6486289865
 C          1.7732550476       -1.9137942968        2.0488284732
 C          1.6939828246       -1.5178139170        0.7204864581
 C          0.5207846990       -1.7052055328        0.0058267310
 H          0.4642181488       -1.3821195270       -1.0234636682
 N          2.8198283274       -0.9217620043        0.0985327042
 S          3.1947375099        0.6332275814        0.6517808538
 O          3.3194036208        0.5935895979        2.0861593493
 O          2.2511873268        1.5955718576        0.1193493446
 C          4.7964823465        0.8685378349       -0.0916083476
 C          5.8998407859        0.3166225325        0.5301450227
 C          7.1443876627        0.4628316185       -0.0610036553
 C          7.2637496388        1.1527114303       -1.2583710178
 C          6.1469590855        1.7014650069       -1.8701467212
 C          4.8989357816        1.5576683914       -1.2841857682
 H          4.0048271662        1.9741793733       -1.7205677199
 H          6.2421187105        2.2392686678       -2.7997945061
 H          8.2332488119        1.2654886789       -1.7173180416
 H          8.0154659267        0.0389599912        0.4119606311
 H          5.7596756356       -0.2037936072        1.4628432364
 H          2.6694190609       -0.8483833940       -0.9009713393
 H          2.6857331805       -1.7525762364        2.5981065214
 H          0.7106749812       -2.7811266366        3.6834235035
 H         -1.3845247200       -3.0694372933        2.4211169049
 H         -2.6335430624       -2.8520967541        0.5085717598
 C         -1.7175339264       -3.3339917549       -1.3582072280
 C         -1.6565467519       -4.8129928670       -1.1264000699
 C         -2.8606168280       -4.2054827349       -1.7798613726
 H         -3.0178094506       -4.3717933427       -2.8349319199
 H         -3.7746644539       -4.1418409303       -1.2075771439
 H         -0.9841912547       -5.4008274075       -1.7319533186
 H         -1.7547169553       -5.1636232477       -0.1102398876
 H         -1.0958956006       -2.9196349212       -2.1408527977
