  62
        -98.93771585
 C          1.9676919095        0.9316060724        0.0101972747
 C          2.3039029960       -0.0228344366        0.9951330954
 C          2.6435165241       -1.3730507877        0.5177147281
 C          2.5949424259       -1.6384219847       -0.8012032367
 C          2.8265063517       -2.9276257028       -1.5616643067
 C          3.5748177623       -4.0927360573       -0.9178681207
 C          5.0423242701       -3.8163110277       -0.5952602730
 H          5.4459866919       -4.6905862439       -0.0798822141
 H          5.5901457482       -3.6993411633       -1.5334803885
 C          5.3075155587       -2.5749859406        0.2530187532
 H          5.0287974591       -1.6803936240       -0.3076371133
 H          6.3840463474       -2.5183927809        0.4351678371
 C          4.6048855510       -2.5473800461        1.6095191815
 H          5.0192570677       -1.7093627025        2.1761327139
 H          4.8268106425       -3.4645274142        2.1582374101
 C          3.0769078141       -2.3594569342        1.5632880366
 H          2.5608234973       -3.3077177256        1.4290885155
 H          2.7554843179       -1.9478160373        2.5247384825
 H          3.0499142350       -4.4324706362       -0.0298268851
 H          3.5439668953       -4.9147987713       -1.6382273205
 H          1.8308763662       -3.2770651562       -1.8581837847
 H          3.3404713297       -2.6375811314       -2.4834993821
 O          2.2414191371       -0.6880231945       -1.7153913771
 C          1.9210317874        0.6065664460       -1.3436572732
 O          1.6267674393        1.3561969232       -2.2945812723
 O          2.3165963487        0.2399192316        2.2303037729
 C          1.5983402224        2.3383785847        0.4354119412
 C          0.2057091889        2.6966633295       -0.0249024599
 C         -0.1494130701        3.9852373697       -0.4050299823
 C         -1.4474274067        4.2684785428       -0.7932273555
 C         -2.4146313471        3.2815547439       -0.8096747755
 C         -2.0686289827        1.9867339207       -0.4357098749
 C         -0.7720746449        1.7103606245       -0.0353187592
 H         -0.5186784625        0.7031472192        0.2640626791
 N         -3.0174132507        0.9537402437       -0.4933591980
 S         -2.8161232840       -0.4462222335        0.4161082245
 O         -2.5752122479       -0.1170481060        1.8041785835
 O         -1.8356545413       -1.2879648581       -0.2248651361
 C         -4.4396589523       -1.1608366722        0.2339131213
 C         -5.3878595345       -0.9465677973        1.2165527097
 C         -6.6574963077       -1.4774782775        1.0508640570
 C         -6.9570283088       -2.2069822374       -0.0898416637
 C         -5.9947970321       -2.4148803829       -1.0670238582
 C         -4.7231707858       -1.8875720488       -0.9069359845
 H         -3.9401537374       -2.0290463641       -1.6338362533
 H         -6.2297338630       -2.9851146303       -1.9512376748
 H         -7.9456162635       -2.6188513243       -0.2170291826
 H         -7.4062555180       -1.3204905589        1.8103621642
 H         -5.1058206647       -0.3809593080        2.0899945322
 H         -3.9732902343        1.2804379818       -0.4969461846
 H         -3.4245470177        3.5025526422       -1.1188797030
 H         -1.7092632655        5.2737842315       -1.0864557130
 H          0.5919908558        4.7674326436       -0.3989241243
 H          1.5964200480        2.3205310473        1.5368374695
 C          2.6522373788        3.3219239732       -0.0342674526
 C          2.9996839707        4.5228355212        0.7925541357
 C          3.9607592355        3.3778549754        0.6939904856
 H          4.8659794677        3.5070892460        0.1200526322
 H          4.0753989502        2.7291224173        1.5503761877
 H          3.2489178412        5.4428078915        0.2854625843
 H          2.4717003781        4.6584458516        1.7244529225
 H          2.6753712816        3.4155481604       -1.1144074214
