  62
        -98.93603302
 C         -2.6255855382       -1.2567686702       -0.0701898820
 C         -2.5275850031       -0.0082428603       -0.7338845255
 C         -3.7989885098        0.6975586297       -0.9518430230
 C         -4.9563279029        0.1458859888       -0.5474941462
 C         -6.3302844625        0.7321076455       -0.7271364352
 C         -6.7243064775        1.7426428026        0.3587963584
 C         -6.0078119896        3.0915398049        0.2831200296
 H         -6.1055612348        3.4976397084       -0.7241268100
 H         -6.5306079961        3.7701295127        0.9600725422
 C         -4.5253954767        3.0443553256        0.6797446650
 H         -4.3234540447        2.1214846707        1.2286991183
 H         -4.3024387193        3.8721407595        1.3567106480
 C         -3.5508746567        3.1445249419       -0.4939420761
 H         -2.5337120497        3.0565330012       -0.1029745076
 H         -3.6472071517        4.1242471484       -0.9671463386
 C         -3.7404549494        2.0634532448       -1.5659652269
 H         -4.6416968779        2.2609477457       -2.1458854421
 H         -2.8774991195        2.0911001028       -2.2356486072
 H         -7.7981653125        1.9197255888        0.2643055121
 H         -6.5471647655        1.2904634305        1.3374695785
 H         -6.4023629151        1.2031736418       -1.7078147084
 H         -7.0321474841       -0.1038741194       -0.6897871344
 O         -5.0091389067       -1.0600788859        0.0791547315
 C         -3.8521401119       -1.7664142537        0.3645252108
 O         -4.0443259122       -2.8224751899        1.0004682913
 O         -1.4505049564        0.5010067674       -1.1350978627
 C         -1.3949997511       -2.0768635517        0.2801040364
 C         -0.3428440462       -1.1777377971        0.8813807631
 C         -0.6004393667       -0.5834836237        2.1135190322
 C          0.3238500782        0.2598984670        2.6992987951
 C          1.5250334724        0.5337917641        2.0686519504
 C          1.7926133583       -0.0545066277        0.8405864145
 C          0.8655674207       -0.9109295974        0.2592852063
 H          1.0772188900       -1.3436821299       -0.7064986326
 N          3.0012122911        0.2399151280        0.1707931726
 S          4.4445361572       -0.1368372473        0.9607078299
 O          4.5807483269       -1.5721122359        1.1028814128
 O          4.5226445994        0.6260464937        2.1796207583
 C          5.6296981767        0.4795572391       -0.2180539913
 C          5.7518285526        1.8484595764       -0.3614175970
 C          6.6539442901        2.3463253944       -1.2875735113
 C          7.4143075862        1.4721533972       -2.0506228772
 C          7.2807032773        0.1010328278       -1.8946823144
 C          6.3786333351       -0.4036329020       -0.9708218080
 H          6.2449222772       -1.4617482276       -0.8124275301
 H          7.8742819094       -0.5757796741       -2.4879979662
 H          8.1165798388        1.8623948670       -2.7702831879
 H          6.7615559781        3.4118513135       -1.4116558377
 H          5.1452001672        2.4896576625        0.2562901826
 H          3.0186423646       -0.1862342581       -0.7473300761
 H          2.2559575034        1.1853247489        2.5182478240
 H          0.1067201874        0.7148117670        3.6544192172
 H         -1.5434579648       -0.7880935262        2.6037523217
 H         -1.7318378313       -2.7698722195        1.0688678630
 C         -0.8718164183       -2.9427741095       -0.8560160055
 C         -1.8121983855       -3.5345466641       -1.8621504514
 C         -0.8359429120       -2.4783738107       -2.2799571830
 H          0.0037264412       -2.7748108642       -2.8922269543
 H         -1.2051973627       -1.4882554203       -2.4941516010
 H         -1.6448450184       -4.5509025775       -2.1855505876
 H         -2.8561265706       -3.2670921654       -1.7851586714
 H         -0.0540815999       -3.5794915682       -0.5299126568
