  62
        -98.93675061
 C          1.7345495407        1.1570726610       -0.0168684397
 C          2.2063961509       -0.0100239990       -0.6630599597
 C          3.6695858609       -0.1588710388       -0.7364887897
 C          4.4553442408        0.7961682113       -0.2068537296
 C          5.9552609008        0.7498442614       -0.1332644995
 C          6.3982579708       -0.1939224586        1.0030342605
 C          7.1461588910       -1.4408343385        0.5309744405
 H          8.1628286609       -1.1595555484        0.2486391705
 H          7.2168268610       -2.1216738185        1.3819099504
 C          6.5207361111       -2.1856868785       -0.6524042796
 H          6.9961795612       -3.1678333085       -0.6975376596
 H          6.7737043711       -1.6753618085       -1.5829558796
 C          4.9995774111       -2.3777190687       -0.5967267497
 H          4.7685961712       -3.3740173187       -0.9795169697
 H          4.6433722611       -2.3442469887        0.4331581803
 C          4.1955750111       -1.3757090387       -1.4462538797
 H          4.7929964311       -1.0664207686       -2.3086125696
 H          3.3035139411       -1.8807096088       -1.8293367297
 H          5.5111522008       -0.4920325387        1.5657054204
 H          7.0424254407        0.3486458314        1.6965313905
 H          6.3595861409        0.4174677715       -1.0867515595
 H          6.3026846107        1.7651035914        0.0588115106
 O          3.9619156306        1.9030528912        0.4070935104
 C          2.5975026306        2.1120398710        0.5199336004
 O          2.2840357705        3.1640315610        1.1122732004
 H         -1.7969727291       -0.3079937994       -0.6839089699
 C         -1.4286947191       -0.4996180094        0.3096141401
 C         -0.4054894192        0.2657277607        0.8448215602
 C          0.0572208707       -0.0350286193        2.1244402302
 C         -0.4780119492       -1.0866764194        2.8408759401
 C         -1.4925916691       -1.8571974694        2.2997384900
 C         -1.9633647890       -1.5640708494        1.0255852000
 N         -2.9790132189       -2.3393168795        0.4570875299
 S         -4.0207761689       -1.7576532696       -0.6986882401
 O         -5.1435918889       -2.6710582197       -0.6505383802
 O         -3.3662646289       -1.6415164895       -1.9776224601
 C         -4.5437999391       -0.1443850297       -0.1406955501
 C         -4.8174742892        0.0601305203        1.1971037699
 C         -5.2523839894        1.3098107402        1.6082964599
 C         -5.4140721894        2.3271674102        0.6804816000
 C         -5.1432990393        2.1043874803       -0.6602697800
 C         -4.7036763692        0.8576353304       -1.0757542300
 H         -4.4752333391        0.6410438904       -2.1071062700
 H         -5.2695872294        2.8958057003       -1.3816459900
 H         -5.7528154895        3.2988365702        1.0036112700
 H         -5.4637840594        1.4859162901        2.6507111499
 H         -4.6888712992       -0.7460770098        1.9003517199
 H         -3.3963392789       -3.0357000196        1.0546546699
 H         -1.9065769790       -2.6867677495        2.8522057400
 H         -0.1049523492       -1.3104539094        3.8289897201
 H          0.8537284007        0.5659276708        2.5424670502
 C          0.2410428807        1.4098667108        0.1045961102
 H          0.1377928106        2.3157197208        0.7192630103
 C         -0.3555458093        1.6800700908       -1.2597424698
 C         -1.5957392593        2.5107217807       -1.3847211298
 C         -0.2737953294        3.0679694708       -1.8180390197
 H         -0.0838769093        3.1888270309       -2.8740367797
 H          0.1940573605        3.8217729209       -1.2014448497
 H         -2.0369717994        2.8912459406       -0.4760200598
 H         -2.3132148893        2.2465705506       -2.1462203899
 H         -0.2204109891        0.8551339309       -1.9502900098
 O          1.4485563110       -0.8852779390       -1.1579458398
