  62
        -98.94018478
 C         -2.1358050000       -0.7102253690       -0.2563080267
 C         -2.6356722308        0.5600178718        0.1266797955
 C         -3.9753089435        0.5622386791        0.7376885941
 C         -4.6267884575       -0.6002324249        0.9177811751
 C         -6.0111242845       -0.7317247201        1.4822976286
 C         -7.0697627532       -0.6992230215        0.3711186092
 C         -6.8982129441        0.4592009281       -0.6115717597
 H         -5.9695003437        0.3186524393       -1.1694088210
 H         -7.7173655494        0.3986797420       -1.3314678614
 C         -6.8915824505        1.8490251723        0.0401929083
 H         -7.5249613654        2.5150489690       -0.5496590894
 H         -7.3251013462        1.7915559367        1.0393291653
 C         -5.5116411471        2.5041579362        0.1232551778
 H         -5.6503145982        3.5544315266        0.3933990215
 H         -5.0349223924        2.4794148928       -0.8598620210
 C         -4.5430408049        1.8934236490        1.1437489531
 H         -3.6871047508        2.5687938058        1.2337870230
 H         -5.0303925630        1.8244155476        2.1184646886
 H         -7.0119885781       -1.6352287681       -0.1894930941
 H         -8.0560397307       -0.6422690562        0.8354208973
 H         -6.0784239051       -1.6856195951        2.0083530419
 H         -6.1879062263        0.0753529064        2.1906741624
 O         -4.1079499453       -1.8015103905        0.5556280930
 C         -2.8657683769       -1.8829354609       -0.0493755421
 O         -2.5226082029       -3.0433400143       -0.3579896494
 H          1.6883821913       -1.7469057476       -1.4104054521
 C          1.6148151729       -1.2985368655       -0.4305400456
 C          0.3912805823       -0.8017861847        0.0027728667
 C          0.3200092165       -0.2347974272        1.2675831884
 C          1.4415605991       -0.1770260400        2.0778097006
 C          2.6544263721       -0.6799577672        1.6464181263
 C          2.7403792348       -1.2436209874        0.3791279919
 N          3.9669355072       -1.7535206964       -0.0711978139
 S          5.3653478549       -0.8947377494        0.2506445114
 O          6.2915110078       -1.2894605176       -0.7869034840
 O          5.7922789608       -1.1450439278        1.6044195692
 C          4.9125265177        0.8215071813        0.0658466093
 C          5.0623673306        1.6900674884        1.1273769870
 C          4.6837910788        3.0137563566        0.9694711766
 C          4.1598508603        3.4421084410       -0.2400090947
 C          4.0178831521        2.5576166345       -1.2984235895
 C          4.3975894684        1.2342610196       -1.1472745778
 H          4.3061068739        0.5254627706       -1.9543112032
 H          3.6098284631        2.8943466978       -2.2378196936
 H          3.8599354110        4.4711792636       -0.3601342400
 H          4.7946319815        3.7044324912        1.7898747848
 H          5.4702563653        1.3148967361        2.0519566644
 H          3.9525422186       -2.1070274507       -1.0162173080
 H          3.5292829555       -0.6579569868        2.2754223344
 H          1.3663133226        0.2631434623        3.0604982566
 H         -0.6176806093        0.1663884619        1.6191685556
 C         -0.7925942678       -0.8827501910       -0.9363838910
 H         -0.8057772597       -1.8983730547       -1.3577699037
 C         -0.6077422092        0.1068718315       -2.0760628552
 C          0.0440184989       -0.3181636225       -3.3556905552
 C         -1.4300796836       -0.0502355294       -3.3184301122
 H         -1.8133914149        0.8368809061       -3.7993562541
 H         -2.1023205571       -0.8955515548       -3.3643837880
 H          0.6803263625        0.3866844727       -3.8684430774
 H          0.3568733277       -1.3472605584       -3.4512908538
 H         -0.4297829833        1.1165771670       -1.7282335414
 O         -2.0095365242        1.6415595991       -0.0175296365
