  62
        -98.94847761
 C          0.8337148264        1.2245586935        0.5669457202
 C          1.2050251993        0.5363053247       -0.6128332012
 C          2.1452186210       -0.5760174059       -0.4246204189
 C          2.4764775622       -0.9659603928        0.8190390469
 C          3.4171527240       -2.0853651018        1.1746086466
 C          4.8930745211       -1.6634216703        1.1959289120
 C          5.5147113946       -1.4187040603       -0.1798418949
 H          5.3325274689       -2.2836993046       -0.8181197666
 H          6.5940948505       -1.3433327536       -0.0337195227
 C          5.0216581022       -0.1451588669       -0.8812772910
 H          5.8767802700        0.3986479143       -1.2891232066
 H          4.5453434294        0.5123976859       -0.1501972204
 C          4.0490326943       -0.3905293680       -2.0353591412
 H          4.5590559952       -0.9354655857       -2.8325683152
 H          3.7419202137        0.5797626265       -2.4334195628
 C          2.7831961008       -1.1665884737       -1.6450068267
 H          3.0239937013       -2.2162065165       -1.4837104677
 H          2.0644643679       -1.0865020575       -2.4631419066
 H          5.4542196278       -2.4607221789        1.6888982301
 H          4.9905942205       -0.7628958577        1.8068857335
 H          3.2909959343       -2.9139539520        0.4777871064
 H          3.1391591237       -2.4225654972        2.1756183028
 O          1.9688347857       -0.3720647189        1.9340527467
 C          1.1950985722        0.7738262947        1.8355743995
 O          0.8901882243        1.2858603079        2.9332957838
 O          0.7963376590        0.8456454725       -1.7607161183
 C          0.0186348880        2.5010034646        0.4719751959
 C         -1.3104977868        2.2381762168       -0.1907150333
 C         -1.8203376250        3.0173266998       -1.2212533883
 C         -3.0597745547        2.7313498898       -1.7665843725
 C         -3.8139580712        1.6723432319       -1.2971042274
 C         -3.3166441552        0.8937552157       -0.2572662109
 C         -2.0740965588        1.1789862153        0.2847352426
 H         -1.6982915513        0.5761463112        1.0995067487
 N         -4.0696892067       -0.1699651858        0.2595845042
 S         -3.3351709677       -1.5063548040        0.9209554574
 O         -4.3696561036       -2.5207459058        0.9012140866
 O         -2.7942811491       -1.1997666046        2.2220999760
 C         -2.0317533937       -2.0044361594       -0.1902768976
 C         -0.8920425350       -2.5607857079        0.3520427692
 C          0.0771100388       -3.0699346418       -0.4962160146
 C         -0.1028447304       -3.0030024510       -1.8683181669
 C         -1.2433788430       -2.4225576222       -2.3988382577
 C         -2.2238255317       -1.9273102587       -1.5550519972
 H         -3.1247092218       -1.4854074304       -1.9479229225
 H         -1.3748483148       -2.3588177007       -3.4669052770
 H          0.6505701676       -3.4045133074       -2.5269836442
 H          0.9633020180       -3.5198319074       -0.0794695162
 H         -0.7840513787       -2.5808878619        1.4256483371
 H         -4.9117727849       -0.4000509503       -0.2463108548
 H         -4.7811589114        1.4507719793       -1.7213733272
 H         -3.4428032259        3.3410066253       -2.5705568681
 H         -1.2473768710        3.8472648830       -1.5998479325
 H         -0.1814000070        2.8104189688        1.5088783935
 C          0.8363517879        3.5786685831       -0.2110432034
 C          0.6117970250        5.0226940963        0.1189859219
 C          1.8541813148        4.3303203243        0.5909744996
 H          2.7956525910        4.5817966522        0.1259267104
 H          1.9383522643        4.0841902621        1.6399708568
 H          0.7037596055        5.7538137949       -0.6699281426
 H         -0.1460192036        5.2559084231        0.8516983428
 H          1.0977538496        3.3192215493       -1.2304698433
