  62
        -98.94003115
 C          1.1294388278        1.2339407223        0.5647172833
 C          1.7531254630        0.8476066261       -0.6433403634
 C          2.6397546542       -0.3344907849       -0.5824788529
 C          2.7198868710       -1.0298139533        0.5665598195
 C          3.5896414391       -2.2174122647        0.8854991601
 C          5.0555277826       -1.8232562229        1.1232636463
 C          5.6331700565       -0.8628688089        0.0873391828
 H          6.6457002470       -0.6013521101        0.4060273180
 H          5.0471756823        0.0578650551        0.0859188590
 C          5.7189410502       -1.4134467266       -1.3347073693
 H          6.3144245420       -2.3290424756       -1.3295907284
 H          6.2557513870       -0.6737826423       -1.9342237677
 C          4.3839182908       -1.7023193453       -2.0269585855
 H          3.9653831746       -2.6503426475       -1.6998083060
 H          4.5899506537       -1.8095410958       -3.0959241487
 C          3.3454346344       -0.5934292262       -1.8919901574
 H          2.5509550554       -0.7677597038       -2.6273522261
 H          3.7995157879        0.3594331209       -2.1871824778
 H          5.6561430676       -2.7340353012        1.1536140552
 H          5.1243597716       -1.3411542235        2.1015504783
 H          3.5228975267       -2.9638241723        0.0998613336
 H          3.1951004817       -2.6576342994        1.8037953393
 O          1.9969872935       -0.6883611944        1.6720899498
 C          1.2081674482        0.4396564022        1.7094173344
 O          0.6260199498        0.6289030313        2.7982925327
 O          1.6104081513        1.4610971187       -1.7324878218
 C          0.2810590300        2.4935083538        0.6583158025
 C         -1.0381270530        2.2324303592       -0.0251514614
 C         -1.3727257258        2.7305198957       -1.2767690096
 C         -2.5848646737        2.3995874770       -1.8603150040
 C         -3.4853673582        1.5747104065       -1.2105863121
 C         -3.1558749830        1.0698955391        0.0411056055
 C         -1.9425280643        1.3985969834        0.6231068371
 H         -1.6792336476        0.9956585287        1.5931759985
 N         -4.0615121180        0.2056036415        0.7015720937
 S         -4.2198520279       -1.3115235788        0.0105961409
 O         -4.7614964586       -1.1599814049       -1.3149007097
 O         -5.0050411851       -2.0898672121        0.9403101121
 C         -2.5584722458       -1.9549163883       -0.0754164161
 C         -2.1188773928       -2.8058399154        0.9184743583
 C         -0.8140333326       -3.2689808047        0.8760293477
 C          0.0281009336       -2.8615497541       -0.1464860447
 C         -0.4231327212       -1.9929943333       -1.1277053223
 C         -1.7297732190       -1.5344864289       -1.0967601140
 H         -2.1134019994       -0.8661839646       -1.8504957226
 H          0.2394162399       -1.6630416855       -1.9119671047
 H          1.0439785778       -3.2205929913       -0.1793718719
 H         -0.4558234711       -3.9399779238        1.6401752426
 H         -2.8080768886       -3.0983154535        1.6946049584
 H         -3.8437740610        0.0911150121        1.6824239332
 H         -4.4247447097        1.2950189885       -1.6588712013
 H         -2.8314738939        2.7906409911       -2.8357813549
 H         -0.6773992678        3.3634402033       -1.8024320524
 H          0.0755413471        2.6322885033        1.7289484096
 C          1.0125725473        3.7141601775        0.1441724567
 C          0.5086135719        5.0765820832        0.5107255998
 C          1.7831460750        4.5628817019        1.1084312852
 H          2.7174803731        4.9945068376        0.7821243371
 H          1.7786224740        4.2705510668        2.1486784832
 H          0.5668029342        5.8641865793       -0.2247664487
 H         -0.3629282750        5.1317181811        1.1455928042
 H          1.4371311359        3.5771531916       -0.8419149808
