  62
        -98.93652359
 C         -2.5469527990       -0.0711362304        0.1441580397
 C         -2.4032564091        1.0740680997        0.9622216096
 C         -1.8701711889        2.2972886796        0.3343447696
 C         -1.5635884087        2.2673103994       -0.9754564604
 C         -0.9415744784        3.3475522493       -1.8199935403
 C          0.5678465215        3.4697238993       -1.5686790200
 C          0.9658130612        3.5391050794       -0.0967832000
 H          0.6798362711        2.6059182395        0.3945020401
 H          2.0577837512        3.5896593694       -0.0536261997
 C          0.4111319611        4.7323747295        0.6797611398
 H          0.7144507012        5.6546936395        0.1793654798
 H          0.8839054809        4.7164060396        1.6649870499
 C         -1.1062547690        4.7648678896        0.8879766395
 H         -1.3071712291        5.4754390897        1.6949787594
 H         -1.6211686388        5.1433480195        0.0087241593
 C         -1.7172089891        3.4346693297        1.3152217495
 H         -1.1456811093        3.0301987397        2.1591560096
 H         -2.7233643492        3.6197201398        1.7108674392
 H          1.0521685516        2.5868759692       -1.9946344898
 H          0.9350077017        4.3543026992       -2.0929874800
 H         -1.4400395584        4.2983309593       -1.6580042305
 H         -1.0973359182        3.0575621992       -2.8616570103
 O         -1.7540898685        1.1534653894       -1.7364977503
 C         -2.1749436587       -0.0487322206       -1.2013438002
 O         -2.1948480986       -0.9867970507       -2.0211169902
 O         -2.6873281594        1.0738364998        2.1927481495
 C         -2.8939899092       -1.3861914603        0.8240458997
 C         -1.8025722692       -2.3715430104        0.4850701001
 C         -2.0100801791       -3.6298847505       -0.0607326398
 C         -0.9288035391       -4.4214620705       -0.4119531795
 C          0.3681651009       -3.9707379106       -0.2508756993
 C          0.5848880409       -2.7159751205        0.3092919606
 C         -0.4964396492       -1.9482305004        0.6997525703
 H         -0.3194612392       -0.9741067604        1.1334170202
 N          1.8844128308       -2.2070938306        0.4965255709
 S          2.0945520210       -0.5420648806        0.2702378407
 O          1.7147480207        0.1400860496        1.4831370306
 O          1.4476619212       -0.1082412307       -0.9462086795
 C          3.8677547310       -0.4747294307        0.0910380911
 C          4.4250600213       -0.2903015208       -1.1595443788
 C          5.8059746313       -0.2715222009       -1.2820589785
 C          6.6008428211       -0.4408763608       -0.1585904883
 C          6.0266238308       -0.6248015407        1.0908053316
 C          4.6471667807       -0.6422290006        1.2204005513
 H          4.1547368105       -0.7724534905        2.1698705412
 H          6.6477275706       -0.7540640606        1.9623238817
 H          7.6747439111       -0.4270443509       -0.2569359181
 H          6.2542978515       -0.1256769110       -2.2515480584
 H          3.7656934115       -0.1594962009       -2.0027904690
 H          2.5818467709       -2.7320426706       -0.0144307689
 H          1.2055927410       -4.5771465806       -0.5612449990
 H         -1.1011318690       -5.3953466106       -0.8447966695
 H         -3.0137740091       -3.9782022604       -0.2417222300
 H         -2.8195031194       -1.1565764802        1.9013260197
 C         -4.3022358192       -1.9070716803        0.5933847695
 C         -5.4149395991       -0.9750093803        0.2194217692
 C         -4.9254668689       -1.9908479404       -0.7664292406
 H         -5.5610553589       -2.8371326404       -0.9833369007
 H         -4.3369407687       -1.6556872405       -1.6051413805
 H         -6.3827063692       -1.1195628402        0.6758553990
 H         -5.1586278690        0.0614053497        0.0520455791
 H         -4.5569078494       -2.6985530702        1.2920658695
