  62
        -98.93100426
 C         -1.2928917568        0.6945608891       -0.7121103923
 C         -2.3297395165        1.0484641310        0.1800030643
 C         -3.4805532564        0.1244834180        0.2538684010
 C         -3.4767726327       -0.9891361951       -0.4997680759
 C         -4.5213928001       -2.0728864553       -0.5901652959
 C         -5.9844757827       -1.6118942580       -0.6781760012
 C         -6.7924953727       -1.9088198529        0.5861673298
 H         -7.8506133047       -1.9631353212        0.3203672398
 H         -6.5009078276       -2.8915713437        0.9627080764
 C         -6.6501370288       -0.8772599949        1.7039720811
 H         -7.1694402035        0.0398918797        1.4173258779
 H         -7.1570077057       -1.2743332416        2.5867575388
 C         -5.2122205835       -0.5179711981        2.0844381641
 H         -4.5853424123       -1.4088999103        2.0969665163
 H         -5.2256807356       -0.1251601394        3.1035159062
 C         -4.5853023103        0.5537990302        1.1804411620
 H         -5.3651064686        1.0478984768        0.5932809662
 H         -4.1347078424        1.3363578877        1.7991758057
 H         -6.0250720171       -0.5492356612       -0.9123599222
 H         -6.4521633885       -2.1436790566       -1.5083703568
 H         -4.2587410577       -2.6455223832       -1.4824951589
 H         -4.3960032082       -2.7477332286        0.2602285969
 O         -2.4325974608       -1.3097342312       -1.3169479593
 C         -1.3229368330       -0.4950015016       -1.4409633817
 O         -0.4487876691       -0.9271157984       -2.2164875714
 H          1.2675231495       -0.5134615117        0.0482467169
 C          1.3687512186        0.3239393650        0.7231028610
 C          0.7292140590        1.5193659385        0.4149618327
 C          0.8294074420        2.5772044651        1.3079956216
 C          1.5413318731        2.4313951547        2.4868139934
 C          2.1961344504        1.2482092422        2.7773098278
 C          2.1166410352        0.1900443727        1.8810361804
 N          2.8150904184       -1.0274062652        2.0918209391
 S          4.2540805869       -1.1088886730        1.2140402550
 O          4.8701431717       -2.3609058555        1.5924727749
 O          5.0538492022        0.0745503203        1.4574384710
 C          3.7450399320       -1.1482934191       -0.4862800504
 C          3.2822062045       -2.3354757919       -1.0172928539
 C          2.8469848752       -2.3534205872       -2.3323706264
 C          2.8770402666       -1.1905368116       -3.0860640512
 C          3.3512308275       -0.0083644003       -2.5389318379
 C          3.7910612451        0.0169514320       -1.2257601676
 H          4.1616740446        0.9152788501       -0.7583551967
 H          3.3711723251        0.8941277870       -3.1292657688
 H          2.5204063519       -1.2051418099       -4.1035691090
 H          2.4728941338       -3.2678693344       -2.7635094286
 H          3.2708603012       -3.2153564647       -0.3946529667
 H          3.0358221194       -1.1902391350        3.0661558595
 H          2.7711760145        1.1419636646        3.6854230399
 H          1.5969450520        3.2551522814        3.1824694169
 H          0.3332997112        3.5088196366        1.0926888081
 C         -0.0607599833        1.5705927274       -0.8693422740
 H          0.5468606868        1.0913561682       -1.6497109873
 C         -0.4172021606        2.9701662128       -1.3201633584
 C          0.6472958164        3.8378410259       -1.9194392336
 C         -0.4383985499        3.2764795071       -2.7862276197
 H         -1.1977156151        3.9463711301       -3.1609566826
 H         -0.1895041877        2.4751524378       -3.4664509310
 H          0.6357503436        4.8949280952       -1.7019675271
 H          1.6377059960        3.4179097074       -2.0089507952
 H         -1.1730049453        3.4394647378       -0.7028851924
 O         -2.3114310890        2.0893562645        0.8882214755
