  62
        -98.94332606
 C         -1.9052768504        0.5792748162        0.7590376744
 C         -2.2734948052        0.1098109268       -0.5252085844
 C         -3.7099542952        0.1538114473       -0.8277146284
 C         -4.5720348734        0.6444430734        0.0814244821
 C         -6.0599049663        0.7856411366       -0.0943719952
 C         -6.8506362258       -0.4930560037        0.2140533705
 C         -6.7194713286       -1.6052614617       -0.8271062914
 H         -7.4866813696       -2.3482199229       -0.6001267114
 H         -6.9392661696       -1.2026832912       -1.8164153303
 C         -5.3499133422       -2.2983961266       -0.8430372754
 H         -4.8192049811       -2.0772736018        0.0858303299
 H         -5.4905773014       -3.3809502332       -0.8812280780
 C         -4.4588158975       -1.9152589646       -2.0246508163
 H         -4.9206902734       -2.2509325960       -2.9557848703
 H         -3.5034584346       -2.4344868028       -1.9156236661
 C         -4.1699108727       -0.4125574682       -2.1370580954
 H         -3.3630636679       -0.2705962176       -2.8601984817
 H         -5.0549928558        0.1153670329       -2.4915677254
 H         -7.9045107302       -0.2144745316        0.2865956811
 H         -6.5386458408       -0.8693277004        1.1910461004
 H         -6.2791275046        1.1142706336       -1.1107039377
 H         -6.3816495088        1.5649188126        0.6000062599
 O         -4.1729413157        1.1054345438        1.2975256461
 C         -2.8390237079        1.0688370320        1.6712511978
 O         -2.6140466509        1.5039803344        2.8196927611
 O         -1.4501657763       -0.3166439987       -1.3750845791
 C         -0.4475934641        0.5632743571        1.1774750376
 C          0.3952445548        1.3849440711        0.2314571888
 C         -0.1067229148        2.5825217736       -0.2710547442
 C          0.6449069264        3.3598369724       -1.1300741472
 C          1.9250393695        2.9740430097       -1.4863926244
 C          2.4446894176        1.7919569730       -0.9753612925
 C          1.6785805347        1.0021119232       -0.1283946989
 H          2.1007791773        0.0882842318        0.2554532139
 N          3.7384439517        1.3710486557       -1.3168861943
 S          4.7340865611        0.7100423556       -0.1459716804
 O          4.4691873438        1.2699495177        1.1586257594
 O          6.0752307744        0.9016532028       -0.6572130150
 C          4.3670825097       -1.0318741496       -0.1561613214
 C          4.0998862525       -1.6576259691       -1.3577114053
 C          3.8637759151       -3.0230757821       -1.3620718199
 C          3.9078619547       -3.7380632657       -0.1746554042
 C          4.1839851580       -3.0960515496        1.0224884311
 C          4.4159773113       -1.7292498823        1.0345178486
 H          4.6215437976       -1.1884018048        1.9445514416
 H          4.2180487201       -3.6527581302        1.9457061712
 H          3.7248475169       -4.8010608529       -0.1817559791
 H          3.6455299467       -3.5252146696       -2.2908582414
 H          4.0706187725       -1.0727537218       -2.2617388430
 H          4.2444019071        2.0008622105       -1.9225198558
 H          2.5160859725        3.5829217677       -2.1536632153
 H          0.2348175991        4.2797669788       -1.5192929297
 H         -1.1020090753        2.8941137898        0.0161652275
 H         -0.4073409821        1.0457974907        2.1659908985
 C          0.0310310064       -0.8682139848        1.3149424108
 C          1.0700902979       -1.2317364223        2.3311456751
 C         -0.3560318956       -1.6424678142        2.5378388314
 H         -0.6139045756       -2.6850876710        2.4292906415
 H         -0.9366633675       -1.1240554734        3.2874413228
 H          1.7898422915       -1.9952888638        2.0771450533
 H          1.4679247796       -0.4390948653        2.9474558791
 H          0.0353985996       -1.3951162753        0.3675516852
