  62
        -98.94090612
 C          1.1489089140        1.2545933673        0.0483013777
 C          1.5868125456        0.1902270447        0.8704665064
 C          2.7163894542       -0.6016819329        0.3639361514
 C          3.2221206540       -0.3154866670       -0.8495889839
 C          4.4108245001       -0.9852927899       -1.4787727040
 C          5.7137361230       -0.4570855218       -0.8450307113
 C          6.5026437908       -1.5050822706       -0.0598764908
 H          7.2695893170       -0.9775275101        0.5111023543
 H          7.0117929069       -2.1669488371       -0.7635501106
 C          5.6826768039       -2.3780982936        0.8946773826
 H          6.3919586914       -2.8786715722        1.5572784624
 H          5.1760738388       -3.1633627245        0.3313279247
 C          4.6441455570       -1.6413701246        1.7501682291
 H          4.9172954115       -0.5925715766        1.8679969507
 H          4.6488621391       -2.0863365144        2.7472644668
 C          3.1986160014       -1.7349867896        1.2268832752
 H          2.5173091497       -1.7431081326        2.0832374361
 H          3.0594884399       -2.6804400618        0.6938391475
 H          5.4598136986        0.3772416693       -0.1879927112
 H          6.3610162884       -0.0561359523       -1.6264004044
 H          4.3849226567       -0.7558098064       -2.5443712912
 H          4.3312056406       -2.0633043372       -1.3548186234
 O          2.7448134948        0.6870627524       -1.6320978893
 C          1.6926730321        1.4892716364       -1.2136387397
 O          1.3463586536        2.3542933518       -2.0402642612
 O          1.0512696884       -0.0874533773        1.9785644484
 C         -0.0156510478        2.1089351795        0.5113836716
 C         -1.2113823640        1.9081262055       -0.3881260997
 C         -2.0774642252        2.9320477423       -0.7513504366
 C         -3.1739499760        2.6679483066       -1.5541358207
 C         -3.4482377439        1.3830928555       -1.9866875283
 C         -2.5910630857        0.3509131185       -1.6230602536
 C         -1.4826851045        0.6236722331       -0.8385947398
 H         -0.8090643092       -0.1819385999       -0.5907878056
 N         -2.8272729621       -0.9726182955       -2.0250894615
 S         -2.4751843817       -2.2164458298       -0.9623595211
 O         -1.0546696937       -2.4598441257       -0.9221002993
 O         -3.2873118583       -3.3210165064       -1.4286053812
 C         -3.0834378912       -1.6465392179        0.6153242264
 C         -2.2183090657       -1.2865141940        1.6275508244
 C         -2.7450687581       -0.7953650165        2.8125884907
 C         -4.1166713114       -0.6729805594        2.9655457246
 C         -4.9738409591       -1.0476246438        1.9414502546
 C         -4.4542994823       -1.5361891070        0.7547923578
 H         -5.0872266580       -1.8478790099       -0.0601561610
 H         -6.0410174191       -0.9564168445        2.0635048337
 H         -4.5186675314       -0.2855446482        3.8883719588
 H         -2.0698502620       -0.5058031354        3.6021479732
 H         -1.1523016222       -1.3800871290        1.4889636019
 H         -3.7005941248       -1.1234356915       -2.5080295729
 H         -4.3080362278        1.1792280168       -2.6060201217
 H         -3.8319049301        3.4745467076       -1.8393795886
 H         -1.8894683481        3.9377970869       -0.4133434765
 H         -0.2829686298        1.7196161985        1.5061755963
 C          0.3987395249        3.5587367288        0.6518291058
 C         -0.2323556348        4.4282511326        1.6969427620
 C          1.1849523260        3.9707739753        1.8593615225
 H          1.9803259375        4.6903033700        1.7357753488
 H          1.3972138326        3.2090914913        2.5955356936
 H         -0.4091003731        5.4675634529        1.4644792775
 H         -0.9825761744        3.9823652277        2.3321640474
 H          0.6683714253        4.0070949133       -0.2975652918
