  62
        -98.94017786
 C         -1.9860560428       -1.4915893918       -0.0056648282
 C         -1.7766438428       -0.2326065685       -0.6136212716
 C         -2.9711718035        0.6108307856       -0.7924972078
 C         -4.1701348487        0.1496268128       -0.3969716223
 C         -5.5172109290        0.8166374608       -0.5203085476
 C         -5.6010389904        2.3102020812       -0.1745787021
 C         -4.6340422422        2.7797157288        0.9222198752
 H         -5.1958040551        3.3352894788        1.6754685143
 H         -4.1856087064        1.9186011161        1.4205346770
 C         -3.5290355834        3.6955396493        0.3906890793
 H         -3.1214009612        4.2731672093        1.2237023078
 H         -3.9718925300        4.4042990124       -0.3124975064
 C         -2.3553220738        2.9874852935       -0.2856643674
 H         -1.7591366311        2.4594496189        0.4638935849
 H         -1.7166664464        3.7556020413       -0.7291915052
 C         -2.7318855716        1.9731276262       -1.3778296839
 H         -3.5845068297        2.3168346346       -1.9586048823
 H         -1.8745248163        1.8661247071       -2.0483507280
 H         -6.6283621218        2.5036926770        0.1386201156
 H         -5.4315007432        2.9017877639       -1.0732116693
 H         -6.1759658888        0.2496954053        0.1418656653
 H         -5.8798348907        0.6645308753       -1.5410854077
 O         -4.3261247487       -1.0775250402        0.1771466496
 C         -3.2502521343       -1.9200679997        0.3946981683
 O         -3.5424919084       -2.9999303861        0.9472998207
 O         -0.6484641841        0.1712652421       -0.9962345150
 C         -0.8118607064       -2.4266290913        0.2202031650
 C          0.2547703544       -1.7294680167        1.0286996478
 C         -0.1044265817       -1.1284262931        2.2334896364
 C          0.8352816700       -0.4784484991        3.0088382766
 C          2.1548284647       -0.4062297097        2.5955641589
 C          2.5254900939       -1.0078325054        1.4002479878
 C          1.5806592040       -1.6748935193        0.6302769750
 H          1.8999664797       -2.1256843127       -0.2938708880
 N          3.8627861743       -0.9717055873        0.9594951833
 S          4.2125728414       -0.3003114771       -0.5359270314
 O          3.5448551596       -1.0397631286       -1.5743229033
 O          5.6582954320       -0.2771386787       -0.5971090178
 C          3.5974476387        1.3707539883       -0.4305295093
 C          2.2454148621        1.6111257480       -0.5703428263
 C          1.7831625130        2.9087858114       -0.4110143708
 C          2.6674642075        3.9345649132       -0.1176080848
 C          4.0230715964        3.6744943399        0.0186555513
 C          4.4931840686        2.3806896152       -0.1334616249
 H          5.5379645444        2.1317291806       -0.0389746590
 H          4.7113154102        4.4730216710        0.2449415495
 H          2.2977400940        4.9405717779        0.0047617446
 H          0.7266955842        3.0968791931       -0.5166966114
 H          1.5634976477        0.8075080029       -0.7992031745
 H          4.5036835957       -0.5964435954        1.6452750486
 H          2.8905215613        0.1078626607        3.1955214752
 H          0.5390411836       -0.0173568100        3.9389710406
 H         -1.1376590592       -1.1785220437        2.5509597293
 H         -1.2006038749       -3.2650086777        0.8170001353
 C         -0.3132586507       -2.9659754608       -1.1042033276
 C          0.3499965453       -4.3077161950       -1.1687994584
 C         -1.0268172031       -4.1239421422       -1.7314109151
 H         -1.1530385383       -4.1330066688       -2.8037312690
 H         -1.8627714469       -4.5425922962       -1.1895571434
 H          1.1733829295       -4.4408222176       -1.8546114649
 H          0.4508206746       -4.8608027959       -0.2470612486
 H          0.0509711856       -2.1881361786       -1.7664072211
