  62
        -98.94494059
 C          2.4492574502       -1.2193315817        0.1162975545
 C          3.3114045925       -0.6376261831       -0.8512734213
 C          4.0976787021        0.5227384627       -0.4170115518
 C          3.9721779932        0.9619414711        0.8481415924
 C          4.6702280244        2.1636993024        1.4140378326
 C          3.8174864265        3.4295552060        1.2502215943
 C          3.2710705558        3.6284494700       -0.1638196980
 H          2.7152272274        4.5687742363       -0.1673905603
 H          2.5522195961        2.8349126183       -0.3836738772
 C          4.3442315948        3.6632000161       -1.2612257231
 H          5.3207984100        3.8589560527       -0.8170545293
 H          4.1235400414        4.4910227915       -1.9382272217
 C          4.4200791215        2.3966937748       -2.1160550125
 H          5.0432653069        2.6123042057       -2.9879399830
 H          3.4217645219        2.1422665546       -2.4813809998
 C          5.0105416165        1.1605775930       -1.4259475766
 H          5.9695051991        1.4158100620       -0.9707611650
 H          5.1841858802        0.4019263928       -2.1944972908
 H          4.4228708125        4.2926839914        1.5331587301
 H          2.9697257785        3.3688253718        1.9371377268
 H          5.6273736537        2.2904350316        0.9119054742
 H          4.8468100542        1.9905771592        2.4769787454
 O          3.1484161059        0.3753690642        1.7511973642
 C          2.3550424000       -0.7113054946        1.4117038969
 O          1.6416175741       -1.1120293922        2.3545324592
 O          3.4216170482       -1.0777746509       -2.0263718016
 C          1.6148393806       -2.4057688814       -0.3422962682
 C          0.2105294025       -1.9492299896       -0.6577456234
 C         -0.2245257937       -1.8500466121       -1.9744483029
 C         -1.4942075387       -1.3820478697       -2.2644373395
 C         -2.3517828100       -0.9966432763       -1.2495642600
 C         -1.9213084606       -1.0801228331        0.0679449912
 C         -0.6556240777       -1.5667326316        0.3570740160
 H         -0.3213517447       -1.6075192745        1.3831367027
 N         -2.7788637284       -0.6593315307        1.1061903471
 S         -3.2605403331        0.9529497582        1.0398340245
 O         -2.2867431815        1.7674244562        0.3478793008
 O         -3.5591709047        1.3248181737        2.4057950763
 C         -4.7804345859        0.8965437913        0.1127730288
 C         -5.8176689271        0.1339275526        0.6134077116
 C         -7.0086808375        0.0785107819       -0.0926613692
 C         -7.1423869455        0.7843628406       -1.2792511670
 C         -6.0929571150        1.5483090917       -1.7665628992
 C         -4.8983213484        1.6073887635       -1.0654399267
 H         -4.0530422785        2.1831625610       -1.4075125762
 H         -6.1986802898        2.0969743662       -2.6886742082
 H         -8.0701526171        0.7391844189       -1.8274996121
 H         -7.8271506230       -0.5138298802        0.2834523560
 H         -5.6725129668       -0.3940539442        1.5410281530
 H         -2.3994947666       -0.8555023603        2.0227867585
 H         -3.3394947900       -0.6242859499       -1.4677356697
 H         -1.8181364479       -1.3125558560       -3.2916352267
 H          0.4504845136       -2.1237599091       -2.7724396126
 H          2.0788743741       -2.7322932173       -1.2825849584
 C          1.6313730911       -3.5689351684        0.6284532361
 C          1.2597142008       -4.9322842575        0.1300739310
 C          2.6833072884       -4.6256849134        0.4835897895
 H          3.1007306751       -5.0613285230        1.3789380899
 H          3.3966864321       -4.5134889308       -0.3198300969
 H          0.6966111008       -5.5824245943        0.7817134382
 H          1.0072083334       -5.0292683491       -0.9149178408
 H          1.3365401373       -3.3009127520        1.6344608964
