  62
        -98.94097054
 C         -2.2967670182       -0.4392720511        0.2707784866
 C         -3.5541820152       -0.9262374889        0.7015568788
 C         -4.6692803005        0.0228992518        0.6181480421
 C         -4.4477206690        1.2745832893        0.1767606545
 C         -5.4786488634        2.3641213262        0.0557202614
 C         -6.2937259342        2.3105280493       -1.2438487052
 C         -7.3183388091        1.1780947170       -1.3238183399
 H         -7.9463264633        1.1943849844       -0.4325890242
 H         -7.9619896861        1.3891095441       -2.1800788216
 C         -6.7061714419       -0.2186641538       -1.4994614012
 H         -7.2458908599       -0.7573739153       -2.2815564916
 H         -5.6704536797       -0.1232406082       -1.8339212352
 C         -6.7416016235       -1.0886235346       -0.2429787231
 H         -6.2485670429       -2.0373463014       -0.4695026474
 H         -7.7782966001       -1.3031273434        0.0255729071
 C         -6.0402261090       -0.4689981698        0.9727279620
 H         -6.6421436760        0.3418316936        1.3820669752
 H         -5.9278194549       -1.2432426402        1.7355464004
 H         -6.8259606176        3.2603502816       -1.3333289860
 H         -5.6019948127        2.2369144650       -2.0862675622
 H         -6.1531450091        2.3272767649        0.9116248560
 H         -4.9340392460        3.3103619057        0.0817464698
 O         -3.2167940657        1.7123739736       -0.2033785481
 C         -2.1165667939        0.8665990067       -0.1837380278
 O         -1.0585289716        1.3926021243       -0.5814904595
 O         -3.7327196745       -2.0933655379        1.1417472316
 C         -1.1005323655       -1.3722255260        0.3000529033
 C          0.0045076849       -0.7803174500        1.1386844612
 C         -0.2975450098       -0.3210774634        2.4186190434
 C          0.6803027524        0.2388193845        3.2163263300
 C          1.9794180485        0.3552270777        2.7536742453
 C          2.2962041627       -0.1141902223        1.4850248225
 C          1.3125677363       -0.6883739181        0.6904330191
 H          1.5815530107       -1.0383764210       -0.2910180603
 N          3.6252793210       -0.0541092276        1.0216756159
 S          3.9614342530        0.4324950289       -0.5598965060
 O          3.5239252293        1.7950467590       -0.7737241868
 O          3.4676182632       -0.5571165220       -1.4819565289
 C          5.7435106702        0.3625950774       -0.5106678824
 C          6.3470479926       -0.8808343480       -0.5067971910
 C          7.7292789414       -0.9543910863       -0.4458642352
 C          8.4814405448        0.2099364284       -0.3908731670
 C          7.8619425953        1.4502937649       -0.3974690068
 C          6.4791005708        1.5306687790       -0.4561324288
 H          5.9539524397        2.4723007134       -0.4693809686
 H          8.4490271811        2.3536627353       -0.3574589985
 H          9.5573486011        0.1500071585       -0.3448222582
 H          8.2148594623       -1.9169070831       -0.4421554601
 H          5.7225693471       -1.7571878304       -0.5592665577
 H          4.2156253128        0.4720166778        1.6538427785
 H          2.7420016223        0.8044049690        3.3722062611
 H          0.4292590591        0.5970706286        4.2035594418
 H         -1.3159660950       -0.4009945184        2.7745798294
 H         -1.4565070093       -2.2881300317        0.7960215708
 C         -0.6724411569       -1.7196613566       -1.1100711354
 C         -0.0137409708       -3.0343983609       -1.3979946032
 C         -1.4180530135       -2.7835181141       -1.8564439412
 H         -1.6017430627       -2.6410341447       -2.9108758751
 H         -2.2230629317       -3.2806136396       -1.3349356307
 H          0.7747062815       -3.0605706272       -2.1352060795
 H          0.1347089775       -3.7091003147       -0.5684986770
 H         -0.3437064839       -0.8513123176       -1.6723065525
