  62
        -98.93756399
 C         -2.2437004736        0.8065210233       -0.0275752473
 C         -3.5756492318        1.2241368964       -0.2822569346
 C         -4.6344846980        0.4493610863        0.3733420252
 C         -4.3072056812       -0.5925475282        1.1585014935
 C         -5.2682284880       -1.4639176004        1.9209914144
 C         -5.8728888315       -2.6027723919        1.0884068794
 C         -6.9098679715       -2.1702102309        0.0510875274
 H         -7.4043544142       -3.0764814055       -0.3041006056
 H         -7.6684463651       -1.5529010907        0.5332420782
 C         -6.3246811041       -1.4224374754       -1.1551188614
 H         -5.2467858220       -1.5947992498       -1.2019145306
 H         -6.7528831925       -1.8248642954       -2.0759083821
 C         -6.5855100701        0.0839084580       -1.1551755157
 H         -7.6584062098        0.2700063531       -1.2394191756
 H         -6.0985066944        0.5162513287       -2.0328986934
 C         -6.0592073411        0.8165310252        0.0860395977
 H         -6.0929197546        1.8910118705       -0.1097846138
 H         -6.6890284169        0.5973421832        0.9479411683
 H         -6.3526434760       -3.2950733690        1.7840872808
 H         -5.0613849166       -3.1398673057        0.5918176467
 H         -6.0680200795       -0.8504193129        2.3367588848
 H         -4.7015090825       -1.9030411201        2.7449118954
 O         -3.0192775861       -0.9743066638        1.3646835580
 C         -1.9574291043       -0.3089505279        0.7607143778
 O         -0.8466321959       -0.8142472121        1.0098023964
 O         -3.8648429603        2.1984668104       -1.0260541393
 C         -1.1256803016        1.5865842294       -0.6953360696
 C         -0.1212650778        0.6452616703       -1.3106959441
 C         -0.5431339881       -0.2050257791       -2.3297347262
 C          0.3324684269       -1.1032211977       -2.9068186036
 C          1.6477843741       -1.1690391895       -2.4828407962
 C          2.0835740834       -0.3155855167       -1.4760045117
 C          1.2013386519        0.5884596728       -0.9009035036
 H          1.5549932031        1.2187666201       -0.1034500365
 N          3.4324389966       -0.3348853408       -1.0769049721
 S          3.8879145788       -0.0139899070        0.5146421520
 O          3.2827115401       -0.9558593178        1.4291140894
 O          3.6784223227        1.3844194364        0.7928332068
 C          5.6382564481       -0.3364015962        0.3807812609
 C          6.4411471930        0.6161799543       -0.2177915872
 C          7.7973531827        0.3636003169       -0.3482009953
 C          8.3260752065       -0.8306940317        0.1189879095
 C          7.5087503707       -1.7762954397        0.7193331231
 C          6.1510069252       -1.5299702932        0.8517144992
 H          5.4780734110       -2.2314157477        1.3185215760
 H          7.9224028944       -2.7024301423        1.0847213648
 H          9.3821661446       -1.0245801465        0.0171597513
 H          8.4366396753        1.0973390409       -0.8120156432
 H          5.9874222875        1.5324258327       -0.5574189264
 H          3.9171887357       -1.1566660508       -1.4128987259
 H          2.3310285667       -1.8772622584       -2.9268410484
 H         -0.0113984932       -1.7637106996       -3.6888563290
 H         -1.5751319520       -0.1613283615       -2.6518297752
 H         -1.6248403621        2.1329448539       -1.5139114021
 C         -0.4856931152        2.6381841061        0.1981979818
 C         -1.2548734625        3.3003394514        1.3006452908
 C         -0.1303953481        2.3663190079        1.6280524310
 H          0.7937881427        2.7752296929        2.0112518670
 H         -0.3638034089        1.3901069757        2.0248847061
 H         -1.1103917423        4.3577935622        1.4629452880
 H         -2.2654658293        2.9631429689        1.4798594539
 H          0.2008958431        3.2732099577       -0.3543479035
