  62
        -98.93401418
 C         -2.2538957126       -1.1492701704       -0.4408790729
 C         -3.5708972275       -1.1542144524        0.0806230444
 C         -4.4275296159       -0.0229346130       -0.3023591592
 C         -3.9232661853        0.9395140129       -1.0959814419
 C         -4.6380400269        2.1974998039       -1.5004263324
 C         -4.6258534935        3.2066373419       -0.3343005767
 C         -6.0058847218        3.5164951501        0.2464314661
 H         -5.8517057866        4.0576049775        1.1824680276
 H         -6.5361449164        4.1837341110       -0.4363242489
 C         -6.9064456166        2.3062824449        0.5121793778
 H         -7.7194724240        2.6507847564        1.1547185365
 H         -7.3654995367        1.9782780108       -0.4215485470
 C         -6.2314359256        1.0998886689        1.1773497894
 H         -5.3507502980        1.4126573321        1.7390480131
 H         -6.9324116309        0.6733428923        1.8977396606
 C         -5.8421396955       -0.0317580054        0.2077361721
 H         -6.5351912952       -0.0424766893       -0.6379069092
 H         -5.9446285060       -0.9879206600        0.7292745803
 H         -3.9775365767        2.8136442350        0.4521373083
 H         -4.1773152286        4.1435248856       -0.6683198304
 H         -4.1121007829        2.6075959193       -2.3627317516
 H         -5.6590582968        1.9627042970       -1.7928928662
 O         -2.6504950041        0.9149322487       -1.5689966216
 C         -1.7819369971       -0.1209930613       -1.2559856783
 O         -0.6513256774       -0.0072520779       -1.7670336489
 O         -4.0104878862       -2.0666688974        0.8306031968
 C         -1.3230760870       -2.2874533748       -0.0553673531
 C         -0.2257973973       -1.7181448938        0.8090542392
 C         -0.5183464037       -1.3813954154        2.1283934183
 C          0.4360811372       -0.7909169282        2.9340758672
 C          1.7013090251       -0.5192617542        2.4418912717
 C          1.9996404080       -0.8432140027        1.1259312064
 C          1.0418819508       -1.4482376002        0.3206006164
 H          1.2818945813       -1.6803268219       -0.7047839465
 N          3.2849990402       -0.5816774689        0.6117776395
 S          3.9837955757        0.9095416943        0.9886370576
 O          4.5204780849        0.8336195126        2.3253149561
 O          3.0481367314        1.9857186421        0.7476927879
 C          5.3184943106        0.9585193901       -0.1905167688
 C          6.5155234551        0.3472321212        0.1308273322
 C          7.5435592328        0.3589808419       -0.7983014833
 C          7.3583125587        0.9775561149       -2.0257876570
 C          6.1514140517        1.5876994721       -2.3333993952
 C          5.1181347949        1.5778789770       -1.4095351952
 H          4.1652379880        2.0447763270       -1.6039431723
 H          6.0103634626        2.0696909362       -3.2874882723
 H          8.1598233586        0.9870070446       -2.7474277174
 H          8.4840262011       -0.1124022243       -0.5628338663
 H          6.6153114411       -0.1122945423        1.1001278796
 H          3.3190687861       -0.7374631558       -0.3871910155
 H          2.4510379075       -0.0450656863        3.0542864603
 H          0.1951056972       -0.5337288735        3.9548955013
 H         -1.5119634792       -1.5767016792        2.5080751303
 H         -1.9301113066       -2.9620206521        0.5634671832
 C         -0.8299598843       -3.0487359325       -1.2670192042
 C         -0.2130049514       -4.4022796924       -1.0842572784
 C         -1.5689347297       -4.2748082214       -1.7089693532
 H         -1.6698124091       -4.4604536965       -2.7677830082
 H         -2.4305026899       -4.5734548669       -1.1301064399
 H          0.6185027602       -4.6802014663       -1.7135927814
 H         -0.1520520438       -4.7879526499       -0.0779477571
 H         -0.4312966578       -2.4063858233       -2.0430067937
