  62
        -98.93919559
 C          2.0991884394        1.5255589758        0.0661491324
 C          1.9028641569        0.3670468095       -0.7219677677
 C          3.0266673789       -0.5857222676       -0.7624820469
 C          4.1506052943       -0.3139071659       -0.0774945179
 C          5.4249078956       -1.1181362400       -0.0140780597
 C          5.2934801066       -2.6385716715        0.1561907238
 C          4.0696272280       -3.1008071419        0.9604942002
 H          3.6032248091       -2.2489314986        1.4582526278
 H          4.3983443200       -3.7919875707        1.7389168495
 C          3.0299261690       -3.8223074541        0.0999775263
 H          2.3975729469       -4.4295726436        0.7518405670
 H          3.5510214334       -4.5033899865       -0.5765815380
 C          2.1042192654       -2.9179353038       -0.7136481355
 H          1.3993799237       -2.4118021789       -0.0485364800
 H          1.5206085551       -3.5568059078       -1.3804626417
 C          2.8007933182       -1.8391156218       -1.5584152433
 H          2.1249160264       -1.5604472427       -2.3715479595
 H          3.7265325005       -2.2117540586       -1.9904956112
 H          6.2043762967       -2.9804356495        0.6505538714
 H          5.2727421507       -3.1138107844       -0.8236692015
 H          6.0055844591       -0.9076667319       -0.9169331508
 H          5.9811716874       -0.7017750945        0.8291765342
 O          4.2940882718        0.8173697150        0.6700985491
 C          3.2814106782        1.7547620785        0.7677044440
 O          3.5489465300        2.7302541293        1.4988328956
 H         -1.5395461363        2.4463123535       -0.9107092774
 C         -1.4608619342        1.9476909166        0.0423263707
 C         -0.2517533085        1.9268518292        0.7169629924
 C         -0.1851133995        1.2673921233        1.9421550820
 C         -1.2995615898        0.6504941778        2.4763537923
 C         -2.5056733485        0.6687004402        1.7968282277
 C         -2.5798654607        1.3150411651        0.5710418903
 N         -3.7927482980        1.3187548330       -0.1359804826
 S         -4.6830090131       -0.0969346975       -0.1820068709
 O         -5.4242663802       -0.0336128247       -1.4226855730
 O         -5.4818599989       -0.2039602304        1.0144582250
 C         -3.4922437658       -1.4256637286       -0.2276080590
 C         -3.5968654955       -2.4610791346        0.6790576317
 C         -2.6617613751       -3.4826942755        0.6408962532
 C         -1.6386535968       -3.4472151231       -0.2938151501
 C         -1.5485207580       -2.4013240314       -1.1991349870
 C         -2.4846649880       -1.3816052582       -1.1701233929
 H         -2.4239913892       -0.5580054251       -1.8625222927
 H         -0.7437844572       -2.3559261766       -1.9144610421
 H         -0.9042277786       -4.2370801582       -0.3160472698
 H         -2.7292603222       -4.2979252774        1.3433321033
 H         -4.4010414571       -2.4423671869        1.3968831058
 H         -3.7376345458        1.7473626922       -1.0482111720
 H         -3.3864601272        0.1958267906        2.2000762245
 H         -1.2314720316        0.1476184698        3.4291069879
 H          0.7596972800        1.2451440979        2.4687371134
 C          1.0010831464        2.5689123102        0.1739493257
 H          1.3529636876        3.3044202754        0.9114661344
 C          0.8119110872        3.2680269017       -1.1558923518
 C          0.2288860952        4.6477134626       -1.2033117070
 C          1.6852132896        4.4386802711       -1.4884678166
 H          2.0341825601        4.5501736549       -2.5041825335
 H          2.4049272499        4.7482358620       -0.7445360287
 H         -0.0429794364        5.1076020235       -0.2652216443
 H         -0.4205514506        4.9082905671       -2.0256599484
 H          0.5741722555        2.5821126409       -1.9609004677
 O          0.8509877983        0.1403926060       -1.3726767779
