  62
        -98.94020952
 C         -1.7626389706       -0.7931723697        0.1242081995
 C         -3.0736011606       -1.0914857897        0.5575963695
 C         -4.0489325805        0.0161014803        0.5436429100
 C         -3.6385648204        1.2332956805        0.1405021505
 C         -4.4563565903        2.4898069906        0.0050907510
 C         -5.3502031303        2.4817935412       -1.2463474690
 C         -6.0700694305        1.1628197414       -1.5162436095
 H         -6.5653170905        1.2474301119       -2.4872605195
 H         -5.3327760705        0.3619995414       -1.5989932399
 C         -7.1280071505        0.7752595211       -0.4858388396
 H         -7.6057296105       -0.1419019687       -0.8400496000
 H         -7.8930768504        1.5541088911       -0.4482145493
 C         -6.6185846404        0.5278630104        0.9351785402
 H         -7.4283939805        0.0466888902        1.4915555601
 H         -6.4097699503        1.4650292002        1.4439031706
 C         -5.4151743505       -0.4051809697        1.0288469198
 H         -5.2800148605       -0.6937905802        2.0784924397
 H         -5.6448472706       -1.3385974895        0.5023180694
 H         -4.7194284903        2.6975183315       -2.1121477189
 H         -6.0820440003        3.2859036213       -1.1536341586
 H         -3.7490239502        3.3176005506       -0.0791399286
 H         -5.0462982703        2.6484949103        0.9028784811
 O         -2.3571385104        1.4768525205       -0.2586239595
 C         -1.3927626005        0.4868615405       -0.2834430499
 O         -0.2723360405        0.8653142805       -0.6735941998
 O         -3.4241756307       -2.2400538799        0.9430184290
 C         -0.7247787407       -1.8993663497        0.0929958890
 C          0.4749098394       -1.5156567802        0.9220951092
 C          0.2784854194       -1.1035532108        2.2386714294
 C          1.3477516295       -0.7432431512        3.0344216095
 C          2.6379173495       -0.7788004211        2.5328838794
 C          2.8464192994       -1.1953038005        1.2246871493
 C          1.7694118494       -1.5713303401        0.4314296391
 H          1.9640595393       -1.8859226797       -0.5795587910
 N          4.1478197294       -1.2728844504        0.6944460192
 S          4.5317297294       -0.4773409999       -0.7277212705
 O          3.6987103094       -0.9537809993       -1.8002965807
 O          5.9552615694       -0.6832341099       -0.8850663506
 C          4.2206293996        1.2463047900       -0.3878956397
 C          5.2966621997        2.0598801298       -0.0865630694
 C          5.0682587998        3.3883528897        0.2310855512
 C          3.7704302398        3.8774174298        0.2530994114
 C          2.7026745898        3.0461058300       -0.0463342589
 C          2.9225384996        1.7158725501       -0.3712573795
 H          2.0957399896        1.0647028803       -0.6079312298
 H          1.6883019598        3.4124791301       -0.0320709187
 H          3.5891865899        4.9110932697        0.5028371319
 H          5.8986751798        4.0361597595        0.4617197614
 H          6.2875990796        1.6363615097       -0.1189960696
 H          4.8746353394       -1.1018089708        1.3755690192
 H          3.4751219595       -0.4916650114        3.1509165195
 H          1.1774842096       -0.4253480216        4.0519655996
 H         -0.7302788705       -1.0684358108        2.6275108694
 H         -1.2073275907       -2.7673688199        0.5669017387
 C         -0.3840715207       -2.2570696692       -1.3384429411
 C          0.0801132091       -3.6402804191       -1.6798941017
 C         -1.2870649508       -3.1853880888       -2.0914429615
 H         -1.4743428209       -2.9882938183       -3.1364326914
 H         -2.1401625109       -3.5838285089       -1.5616792016
 H          0.8375685491       -3.7535920788       -2.4411058618
 H          0.1553573091       -4.3548602994       -0.8741450520
 H          0.0473941393       -1.4273675490       -1.8887921108
