  62
        -98.94044801
 C          0.6633038799        1.4285478404        0.0149384759
 C          1.3658855144        0.5878921004        0.9073056517
 C          2.3794762046       -0.3006390149        0.3120174895
 C          2.5395369091       -0.3122713515       -1.0225071556
 C          3.4890489237       -1.1332863042       -1.8601514250
 C          4.9020990254       -1.3648017688       -1.3139350318
 C          5.5041579034       -0.1660110113       -0.5667164248
 H          6.4846644168        0.0622730837       -0.9886872083
 H          4.8760164743        0.7152801165       -0.7076747059
 C          5.6849911844       -0.4251408977        0.9303980493
 H          6.4197431835        0.2815974452        1.3236144822
 H          6.0922163889       -1.4291873984        1.0673122673
 C          4.4194210771       -0.2784839197        1.7740815809
 H          4.6586900728       -0.5846699424        2.7954559236
 H          4.1233366831        0.7732915661        1.8175970605
 C          3.2042529714       -1.0873818859        1.2898155166
 H          3.5093800445       -2.0475264177        0.8832946946
 H          2.5542988576       -1.2616550456        2.1514410320
 H          5.5322703518       -1.6147970481       -2.1693039071
 H          4.9058998052       -2.2331926531       -0.6574843291
 H          3.0193178020       -2.0992704214       -2.0618914601
 H          3.5516996129       -0.6040791985       -2.8142980051
 O          1.7839348324        0.4641346919       -1.8513555304
 C          0.8489920358        1.3610191776       -1.3646301833
 O          0.2636214858        2.0217544108       -2.2430667289
 H         -1.5211921734        0.0442614757        0.3844793148
 C         -2.1521062354        0.8117303322       -0.0411128839
 C         -1.7125074082        2.1296653955       -0.0320015622
 C         -2.5389801402        3.1097019710       -0.5650459127
 C         -3.7653366234        2.7682583331       -1.1087756002
 C         -4.1950494658        1.4545401890       -1.1233484988
 C         -3.3781772738        0.4666570479       -0.5836274300
 N         -3.7616351294       -0.8810465009       -0.6121660660
 S         -3.2877966105       -1.9293798840        0.5944360508
 O         -4.1628641790       -3.0729362497        0.4385095541
 O         -3.3128092917       -1.2982984380        1.8937894022
 C         -1.6314975040       -2.4303556396        0.1761892453
 C         -1.2593954573       -2.5333598736       -1.1490725859
 C          0.0075821954       -3.0055121485       -1.4520006719
 C          0.8693980350       -3.3781747004       -0.4323737939
 C          0.4823014079       -3.2655593744        0.8931359711
 C         -0.7788749321       -2.7842783673        1.2028270718
 H         -1.1149049718       -2.6672915927        2.2209785312
 H          1.1553893437       -3.5500936690        1.6855197217
 H          1.8484941457       -3.7633203104       -0.6693490787
 H          0.3143643906       -3.0833993663       -2.4829606152
 H         -1.9529435795       -2.2374243147       -1.9188441877
 H         -4.6953452654       -1.0662770900       -0.9467499637
 H         -5.1494520052        1.1900102511       -1.5523444683
 H         -4.3964183831        3.5376798468       -1.5270896005
 H         -2.2212791034        4.1392923538       -0.5638292004
 C         -0.3555507836        2.4104097413        0.5630494768
 H         -0.4096936879        2.2082120479        1.6436814064
 C          0.1191331464        3.8332791150        0.3537156352
 C         -0.3019581557        4.9188970542        1.2971958187
 C          1.1091224248        4.4153268900        1.3159959207
 H          1.8912733635        5.0520685041        0.9305324417
 H          1.4202465592        3.7934088884        2.1428484763
 H         -0.4869955127        5.9054518265        0.8997571977
 H         -0.9481781670        4.6447941931        2.1174566436
 H          0.2362682297        4.0811623543       -0.6954607517
 O          1.1580908599        0.5788987785        2.1511130007
