  62
        -98.94417087
 C         -2.2417899584       -0.8337299879        0.4257620361
 C         -2.4722244616       -0.0228796053       -0.7122309904
 C         -3.3406168561        1.1417124834       -0.4957030326
 C         -3.8158351368        1.4040884811        0.7352662400
 C         -4.6950044060        2.5640985369        1.1169966937
 C         -6.1889373775        2.3251831636        0.8576681103
 C         -6.6058812129        2.3487981627       -0.6134292492
 H         -7.6967403396        2.3877360315       -0.6358280269
 H         -6.2380322437        3.2635370913       -1.0792290584
 C         -6.1390805541        1.1316944047       -1.4241357957
 H         -6.9680500643        0.7582974657       -2.0295153418
 H         -5.8537279020        0.3273252297       -0.7421639087
 C         -4.9745876609        1.4113129609       -2.3743431867
 H         -4.7031164751        0.4749130026       -2.8680827366
 H         -5.2915171558        2.1184995333       -3.1439763056
 C         -3.7188590967        1.9660977650       -1.6889939828
 H         -2.8899588723        1.9188994857       -2.3994886599
 H         -3.8751389720        3.0054530877       -1.4009780807
 H         -6.7395436807        3.1096581270        1.3819841190
 H         -6.4715586397        1.3678257178        1.3017046266
 H         -4.5526179859        2.7229348604        2.1882280596
 H         -4.3710927692        3.4602796922        0.5869799571
 O         -3.5223924941        0.6297239518        1.8152477480
 C         -2.7488367974       -0.5129836513        1.6838993143
 O         -2.5751722729       -1.1414178457        2.7494240001
 H          0.1238866947       -0.0840916157        1.1795306930
 C          0.6442942363       -0.6577352052        0.4209492910
 C         -0.0005656969       -1.7393377709       -0.1667889425
 C          0.6859997089       -2.4765510572       -1.1224911701
 C          1.9736550560       -2.1238440040       -1.4885510804
 C          2.6038497002       -1.0364163602       -0.9130437817
 C          1.9313396806       -0.2986656948        0.0526253236
 N          2.5642369697        0.8135218733        0.6400331383
 S          4.0598860143        0.5564966162        1.3639960542
 O          4.1806504568       -0.7963920787        1.8570363776
 O          4.1936056920        1.6124033215        2.3440788177
 C          5.2292672146        0.8336394173        0.0505446169
 C          5.2075334496        2.0546100077       -0.5947746382
 C          6.1186547002        2.2894091984       -1.6121086904
 C          7.0326727986        1.3066058668       -1.9623780007
 C          7.0437153828        0.0873830795       -1.3023337949
 C          6.1342325259       -0.1545170931       -0.2844147662
 H          6.1012892831       -1.0885074524        0.2534154461
 H          7.7553680123       -0.6749542024       -1.5757272840
 H          7.7409178698        1.4925153202       -2.7542675096
 H          6.1131044462        3.2363035661       -2.1276000395
 H          4.4841816078        2.7921380277       -0.2892638498
 H          1.9630171810        1.3331936892        1.2634270915
 H          3.6033505518       -0.7544955332       -1.2010658809
 H          2.4924687739       -2.7031370017       -2.2368476453
 H          0.2120081593       -3.3274159737       -1.5833395565
 C         -1.3942599985       -2.0859333143        0.3007705773
 H         -1.3120260489       -2.5005187175        1.3170485863
 C         -2.0934098533       -3.0983712170       -0.5833816903
 C         -1.9013718016       -4.5664221841       -0.3538885327
 C         -3.2051356528       -3.9171981688       -0.0018611575
 H         -4.0693889298       -4.1243179026       -0.6149303924
 H         -3.4377111421       -3.7654929220        1.0426375432
 H         -1.2513938298       -4.8659281029        0.4545478189
 H         -1.8737264650       -5.2234779566       -1.2100609432
 H         -2.2103851170       -2.7478704921       -1.6023021292
 O         -1.9801849035       -0.2550494376       -1.8458996991
