  62
        -98.94579389
 C          1.6978092496        1.3054890530        0.3851014246
 C          1.2958453072        0.2042545956       -0.4082406178
 C          1.8939522668       -1.0925778449       -0.0625336527
 C          2.7160821937       -1.1797032852        0.9976531907
 C          3.4296575960       -2.4259309210        1.4332393893
 C          4.8083208484       -2.5413621932        0.7672868619
 C          4.7828126969       -2.3323538129       -0.7468477712
 H          4.4992364824       -1.2988621030       -0.9582921772
 H          5.8037386382       -2.4667642196       -1.1104937089
 C          3.8408110596       -3.2801370823       -1.5021427833
 H          3.5947734157       -4.1361911221       -0.8729019125
 H          4.3611954554       -3.6628141803       -2.3825600593
 C          2.5485974105       -2.6275614764       -1.9962953542
 H          2.0635059231       -3.3179487571       -2.6911217516
 H          2.7887567058       -1.7173473238       -2.5512923201
 C          1.5218542584       -2.2748762557       -0.9122302450
 H          0.5873953477       -2.0034274179       -1.4117232708
 H          1.3266574075       -3.1477850011       -0.2853503169
 H          5.4678165257       -1.7892128760        1.2067295696
 H          5.2187852169       -3.5269643744        0.9942652158
 H          3.5589706268       -2.3853743313        2.5163522165
 H          2.8179686006       -3.2915903934        1.1856512211
 O          3.0307659831       -0.1137946990        1.7778752713
 C          2.5239435857        1.1444643816        1.4989488261
 O          2.8747565118        2.0284399944        2.3079062277
 H         -0.5987771455        1.4172178461        1.6858370976
 C         -1.0948893315        1.8892347709        0.8492249367
 C         -0.3505658623        2.6111359143       -0.0767699299
 C         -1.0159942258        3.2059246413       -1.1407853972
 C         -2.3861416188        3.0627240278       -1.2800607819
 C         -3.1148028593        2.3052256998       -0.3819837111
 C         -2.4569143538        1.7062389594        0.6862344382
 N         -3.1422219338        0.8912264617        1.6142169777
 S         -2.7422042965       -0.7380731565        1.6090572946
 O         -3.5900564863       -1.3374048284        2.6183835323
 O         -1.3225709614       -0.8976708994        1.7908930509
 C         -3.2571672804       -1.3085122166       -0.0018668715
 C         -2.4770232756       -1.0204560703       -1.1037363736
 C         -2.9308527287       -1.4037384158       -2.3572587373
 C         -4.1457286818       -2.0579874982       -2.4881760716
 C         -4.9172601255       -2.3380639000       -1.3701244043
 C         -4.4732996426       -1.9556104299       -0.1149873075
 H         -5.0367089435       -2.1524032577        0.7829332992
 H         -5.8614122590       -2.8483980627       -1.4725093741
 H         -4.4919112832       -2.3510168371       -3.4668405006
 H         -2.3257495421       -1.1807019617       -3.2214770442
 H         -1.5329179248       -0.5114271440       -0.9816873820
 H         -4.1486821159        0.9773991562        1.5608974070
 H         -4.1788447081        2.1698963497       -0.5060763026
 H         -2.8891505867        3.5302830001       -2.1126360722
 H         -0.4607771916        3.7653407332       -1.8754626090
 C          1.1399565715        2.6990541329        0.1471678012
 H          1.3030715629        3.2343802462        1.0978780666
 C          1.8713198860        3.4888064308       -0.9290260582
 C          3.2845065357        3.1586734248       -1.3046586973
 C          2.1727662952        2.9044834870       -2.2753068750
 H          2.0955395456        3.5448651691       -3.1417711343
 H          1.8660410558        1.8862600896       -2.4528643339
 H          3.7467679341        2.3115811363       -0.8181082473
 H          3.9658210062        3.9735638465       -1.4988692939
 H          1.6219603877        4.5449132999       -0.8985841021
 O          0.4820501671        0.2899328239       -1.3648164597
