  62
        -98.94078599
 C          2.5220802317       -0.2910921748       -0.0411311730
 C          2.1721576255       -1.3187713351        0.8615267460
 C          1.4186925700       -2.4639572583        0.3174009579
 C          1.1353741736       -2.4834623520       -0.9983949239
 C          0.3418809569       -3.5009606277       -1.7761070803
 C         -1.1683313383       -3.3546247223       -1.5510609013
 C         -1.5892834537       -3.2936127591       -0.0856438953
 H         -1.1752541019       -2.3901875786        0.3671153897
 H         -2.6775232328       -3.1836454972       -0.0604392987
 C         -1.2223955820       -4.5159095156        0.7547062137
 H         -1.7223948069       -4.3971722162        1.7191064257
 H         -1.6261814936       -5.4116477549        0.2777091733
 C          0.2704535430       -4.7323177229        1.0263436713
 H          0.7603566078       -5.2375463402        0.1976757788
 H          0.3497857003       -5.4015345023        1.8878614064
 C          1.0386966248       -3.4642236207        1.3823150637
 H          1.9813664789       -3.7455862893        1.8670154353
 H          0.4804752540       -2.9029729294        2.1415485425
 H         -1.6719252670       -4.1878319795       -2.0458431172
 H         -1.4918444779       -2.4232520199       -2.0235223528
 H          0.5546290303       -3.3176007563       -2.8319299501
 H          0.6698572233       -4.5082662594       -1.5380410072
 O          1.5429442222       -1.4932512967       -1.8436481167
 C          2.1802606806       -0.3560859317       -1.3911510282
 O          2.4105203860        0.4946515918       -2.2736184119
 O          2.4628212779       -1.2788184016        2.0903776888
 C          3.1314103055        0.9917908583        0.4977281295
 C          2.1293472196        2.1016580835        0.2831974107
 C          2.4438453835        3.3526214937       -0.2301152944
 C          1.4427762520        4.2803322329       -0.4669865516
 C          0.1158326576        3.9762108919       -0.2238982292
 C         -0.2054182853        2.7333675789        0.3108708862
 C          0.8025221908        1.8279446298        0.5892862920
 H          0.5401138662        0.8686645793        1.0112235438
 N         -1.5364281718        2.3627628212        0.5789246509
 S         -1.9320458694        0.7401942176        0.2877745440
 O         -1.6084408879       -0.0291531913        1.4634107200
 O         -1.3520763632        0.3004187711       -0.9597940166
 C         -3.7045397800        0.8651441832        0.1326571149
 C         -4.4760813230        0.8806830575        1.2791470964
 C         -5.8504275087        1.0136445735        1.1597438459
 C         -6.4270882257        1.1289898258       -0.0964652475
 C         -5.6402486895        1.1089581694       -1.2383034071
 C         -4.2649542398        0.9778276231       -1.1256056732
 H         -3.6128867069        0.9484666986       -1.9841625406
 H         -6.0908312540        1.1945397309       -2.2139366999
 H         -7.4968346395        1.2319344103       -0.1867896125
 H         -6.4654497676        1.0261087408        2.0449698863
 H         -3.9828064583        0.7782059958        2.2315843831
 H         -2.2080506355        2.9878313782        0.1534600334
 H         -0.6639240219        4.6885626903       -0.4468793113
 H          1.6989199302        5.2471244659       -0.8733868665
 H          3.4681072190        3.5950255586       -0.4620766145
 H          3.2481048710        0.8307576520        1.5802569164
 C          4.4889470459        1.2686935222       -0.1091574904
 C          5.5097542470        2.0554836407        0.6562470701
 C          5.6919050695        0.5812309822        0.4614384347
 H          6.4587275873        0.2386503163       -0.2167861010
 H          5.5331232283       -0.0718880083        1.3071990539
 H          6.1573472979        2.7262093841        0.1122036253
 H          5.2354461624        2.4051263131        1.6400534559
 H          4.4443328669        1.3906671470       -1.1853577361
