  62
        -98.93831943
 C         -1.8182761400       -0.7331322092        0.2502469207
 C         -2.3359471999        0.5685994809        0.0611445512
 C         -3.7743191199        0.7440031209        0.3384221314
 C         -4.4957216899       -0.3132151092        0.7499733812
 C         -5.9726769299       -0.3630114892        1.0288308014
 C         -6.7467259201       -0.8179533987       -0.2201294386
 C         -7.1399112801        0.3051933316       -1.1788050882
 H         -7.9267872200        0.9085101015       -0.7212161779
 H         -7.5627153503       -0.1621370882       -2.0711552583
 C         -5.9985057801        1.2325898116       -1.6041213581
 H         -6.2968913502        1.7277660519       -2.5303538879
 H         -5.1073327102        0.6427370416       -1.8264920584
 C         -5.6670528199        2.3029539413       -0.5536133679
 H         -6.4622723798        2.3295094911        0.1912160723
 H         -5.6565500699        3.2857028214       -1.0297327576
 C         -4.3096015798        2.1366688910        0.1453993119
 H         -4.3474266897        2.6333965507        1.1208398621
 H         -3.5361511099        2.6507387911       -0.4342792380
 H         -7.6598098801       -1.3247867888        0.0986221314
 H         -6.1318279202       -1.5526322186       -0.7462444189
 H         -6.1154170298       -1.1065128894        1.8157350412
 H         -6.3309114098        0.5979851508        1.3854946317
 O         -3.9527359300       -1.5498799693        0.9246478608
 C         -2.6143714200       -1.7936701993        0.6809211905
 O         -2.2559176601       -2.9707105894        0.8870061702
 H          1.8084623599        0.5266518809       -0.8290307494
 C          1.5840719601        0.6076172106        0.2211076807
 C          0.5238543801       -0.0912034495        0.7761671506
 C          0.2681532003        0.0553706601        2.1379305707
 C          1.0342667505        0.9011273198        2.9147243808
 C          2.0841942804        1.6081584699        2.3546495409
 C          2.3558793802        1.4606227003        1.0006280908
 N          3.4102474902        2.1684703804        0.4073956009
 S          4.3305535200        1.4719039707       -0.7951668395
 O          5.5786940000        2.2043255306       -0.7612531494
 O          3.6279113798        1.4911807711       -2.0529588394
 C          4.6025866700       -0.2133763995       -0.2730392500
 C          4.3407677298       -1.2458860592       -1.1490618202
 C          4.5599651997       -2.5506494294       -0.7362945807
 C          5.0333413599       -2.7990252098        0.5423043992
 C          5.2972857501       -1.7502278700        1.4102124595
 C          5.0834256901       -0.4442877999        1.0009900399
 H          5.2889457603        0.3896332199        1.6518895001
 H          5.6680301802       -1.9467831603        2.4032601194
 H          5.1989571799       -3.8153265299        0.8634967289
 H          4.3584628096       -3.3661870492       -1.4126199809
 H          3.9677642196       -1.0089406589       -2.1320157701
 H          3.9658625403        2.7238487602        1.0404044309
 H          2.6790594006        2.2774815597        2.9571777510
 H          0.8153758706        1.0113018095        3.9661527609
 H         -0.5536886997       -0.4955411500        2.5752013306
 C         -0.3533143801       -1.0161987592       -0.0305799295
 H         -0.1724014101       -2.0453285893        0.3134097701
 C         -0.0972295703       -0.9515362788       -1.5218101896
 C          0.9665006096       -1.8020732187       -2.1449954999
 C         -0.4790951505       -2.1264542886       -2.3695540798
 H         -0.9059501006       -1.9432484482       -3.3443144297
 H         -0.8972446905       -2.9846981287       -1.8635433900
 H          1.5350438396       -2.4464770489       -1.4918166102
 H          1.5320330495       -1.3912075485       -2.9680545799
 H         -0.2673227603        0.0376020313       -1.9326936992
 O         -1.6357719699        1.5414180709       -0.3253274686
