  62
        -98.94497062
 C         -2.5499105506       -0.1647300381        0.4474706807
 C         -2.4311492500        0.5211457214       -0.7849771195
 C         -2.2495771189        1.9760312613       -0.6932073200
 C         -2.2083969185        2.5610272117        0.5173905998
 C         -2.0190404574        4.0312170816        0.7541797393
 C         -0.5409603472        4.3959639406        0.9428190593
 C          0.3868334925        3.8389636295       -0.1373440004
 H          1.3868476128        4.2271947588        0.0705454095
 H          0.4479404017        2.7523408495       -0.0382593500
 C         -0.0106347371        4.2030828893       -1.5744630806
 H          0.8910294232        4.4883816584       -2.1204063706
 H         -0.6743699464        5.0688726998       -1.5684685309
 C         -0.6640585079        3.0652221195       -2.3614766102
 H         -0.0667637786        2.1564065291       -2.2481858199
 H         -0.6581356076        3.3357655292       -3.4209551103
 C         -2.1134455682        2.7367831408       -1.9815507302
 H         -2.7060427975        3.6537967712       -1.9554708806
 H         -2.5227758586        2.0829971708       -2.7573266400
 H         -0.4596845063        5.4848522505        0.9684674290
 H         -0.2076214475        4.0062833706        1.9077568495
 H         -2.4337998969        4.5815469116       -0.0884368009
 H         -2.5668395773        4.3028871123        1.6586523492
 O         -2.3238697092        1.8680183022        1.6805996500
 C         -2.4714780502        0.4906996723        1.6742319505
 O         -2.5333060007       -0.0264428373        2.8106048007
 H         -0.1567157611       -0.8814787199        0.4863001112
 C         -0.2804185218       -1.7580483000       -0.1331742786
 C         -1.5436201722       -2.3163425891       -0.2776479885
 C         -1.6793118930       -3.4533956293       -1.0637097981
 C         -0.5752245033       -4.0020605303       -1.6938179978
 C          0.6772856071       -3.4333064612       -1.5590914079
 C          0.8225245179       -2.2907248511       -0.7779913883
 N          2.0698017084       -1.6544616220       -0.6686354684
 S          2.3707701991       -0.5772420518        0.5876880213
 O          2.1296153685       -1.2122966712        1.8660144915
 O          1.6607770900        0.6501213987        0.3329567208
 C          4.1204422593       -0.3235353432        0.3588493013
 C          5.0134070486       -1.1140505336        1.0577034217
 C          6.3722524088       -0.9335063947        0.8530893617
 C          6.8130357296        0.0282428446       -0.0436310486
 C          5.9051876902        0.8157025751       -0.7360253689
 C          4.5450481401        0.6404558862       -0.5354934590
 H          3.8022347806        1.2337355466       -1.0431045492
 H          6.2509797709        1.5650146446       -1.4295961891
 H          7.8709059197        0.1673439938       -0.2010503685
 H          7.0800052583       -1.5414849451        1.3931265020
 H          4.6244826080       -1.8403206431        1.7532762519
 H          2.8546801979       -2.2605375226       -0.8603626681
 H          1.5337405868       -3.8586108120       -2.0590644877
 H         -0.6934321940       -4.8864301504       -2.3014853275
 H         -2.6490274733       -3.9079502786       -1.1849478680
 C         -2.6980258217       -1.6744797580        0.4553944412
 H         -2.6406859021       -1.9810237377        1.5114963213
 C         -4.0520651320       -2.0734200771       -0.0965225188
 C         -4.7568724430       -3.2891846664        0.4236602516
 C         -5.2588586420       -1.9228546859        0.7785236711
 H         -6.1794375617       -1.5763754854        0.3336645709
 H         -5.0957270818       -1.5602277857        1.7834276910
 H         -4.2643012535       -3.8613838065        1.1954710018
 H         -5.3386363034       -3.8824092962       -0.2656960582
 H         -4.1590898017       -1.8253622374       -1.1462650988
 O         -2.4841172103       -0.0511793889       -1.9054560393
