  62
        -98.94113978
 C         -1.6525342246        0.4230028353       -0.9501437817
 C         -2.8847252695        1.0219495992       -0.5917292514
 C         -4.0251203837        0.1036673212       -0.4415918654
 C         -3.8487749918       -1.2156859930       -0.6316740000
 C         -4.9091868570       -2.2612737603       -0.4464748556
 C         -4.9078345106       -2.8064884784        0.9886320548
 C         -4.9016643518       -1.7191339314        2.0632133379
 H         -4.9321192711       -2.2204278859        3.0330984867
 H         -3.9563803833       -1.1735822338        2.0135598791
 C         -6.0660901223       -0.7236108223        1.9660737338
 H         -6.4766773043       -0.5662694755        2.9657442556
 H         -6.8630602209       -1.1439804340        1.3515507294
 C         -5.6795276606        0.6528284424        1.4218676718
 H         -6.5152600014        1.3352643296        1.5985915945
 H         -4.8200355270        1.0378768234        1.9764168937
 C         -5.3510788532        0.7095345396       -0.0753258059
 H         -6.1575145185        0.2461611349       -0.6471641612
 H         -5.2887384870        1.7635965302       -0.3610307595
 H         -5.7858340336       -3.4421918352        1.1169567680
 H         -4.0173759750       -3.4247882357        1.1231521201
 H         -4.7076182512       -3.0815035562       -1.1374377666
 H         -5.8809090914       -1.8316878512       -0.6820542246
 O         -2.6513604056       -1.7566803273       -0.9711606744
 C         -1.5324020379       -0.9592660725       -1.1314753312
 O         -0.4997977974       -1.5869230952       -1.4397222769
 O         -3.0534045338        2.2556901124       -0.4010659309
 C         -0.3656573951        1.2082881150       -1.1478793465
 C          0.3051408602        1.4903793748        0.1753095317
 C         -0.2760083610        2.3224927595        1.1263827185
 C          0.3705601457        2.5694890727        2.3232970440
 C          1.6097142613        2.0117523242        2.5860532427
 C          2.1966615326        1.1755217664        1.6436919129
 C          1.5349914944        0.9119571063        0.4526528686
 H          1.9859146991        0.2493136946       -0.2699760246
 N          3.4406125218        0.5799109386        1.8882019954
 S          4.5282219940        0.3209812347        0.6450115442
 O          5.8081051853        0.2021333892        1.3104637662
 O          4.4330447582        1.3450218483       -0.3687968618
 C          4.0754705982       -1.2649126091       -0.0225161123
 C          3.8629024982       -1.4034264754       -1.3792011272
 C          3.5267446637       -2.6499670897       -1.8821095131
 C          3.4118368894       -3.7311985264       -1.0229688451
 C          3.6334513221       -3.5769381397        0.3371330572
 C          3.9697070120       -2.3331393194        0.8456319865
 H          4.1517381880       -2.1748835609        1.8956036239
 H          3.5417777424       -4.4215780159        1.0010238267
 H          3.1451264414       -4.6990510147       -1.4172550361
 H          3.3492281401       -2.7708599334       -2.9386972335
 H          3.9566693775       -0.5349564455       -2.0127056897
 H          3.8956890440        0.8667534852        2.7421303241
 H          2.1187480538        2.2178599995        3.5154909950
 H         -0.0899063598        3.2137437310        3.0572798284
 H         -1.2403377675        2.7613529002        0.9217821261
 H          0.3000751597        0.5447559640       -1.7165968082
 C         -0.5454219480        2.4898811510       -1.9388177249
 C          0.6700119149        3.1498033115       -2.5150575684
 C         -0.3185503450        2.4771018825       -3.4188472480
 H         -0.9497090940        3.0928347247       -4.0420324359
 H         -0.0366674869        1.5390085268       -3.8748976305
 H          0.7175447923        4.2281067339       -2.5175022559
 H          1.6252684224        2.6719092108       -2.3514036156
 H         -1.3332708092        3.1266963288       -1.5599749848
