  62
        -98.94870290
 C         -1.5076806904       -1.3563504892       -0.3610854493
 C         -0.3899506110       -1.6482399896       -1.1774850100
 C          0.5702871687       -2.6109880603       -0.6286904208
 C          0.3788960990       -3.1129976506        0.6046907091
 C          1.2479057988       -4.1324527113        1.2906355184
 C          2.4867278195       -3.5398577722        1.9747060979
 C          3.6030347493       -3.1014406926        1.0267119375
 H          4.4937714697       -2.9381384233        1.6369136571
 H          3.8280456385       -3.9098699125        0.3299241371
 C          3.3007691396       -1.8135079421        0.2481339481
 H          2.4928583902       -1.2661433318        0.7419706987
 H          4.1831252700       -1.1683910827        0.2748363478
 C          2.9412531387       -2.0239935515       -1.2232221418
 H          3.8106821182       -2.4128012618       -1.7587519624
 H          2.6825624291       -1.0527210312       -1.6524160014
 C          1.7619832581       -2.9739879307       -1.4630278615
 H          1.4668551276       -2.8903648002       -2.5121014713
 H          2.0617708976       -4.0030632409       -1.2645190020
 H          2.1755920103       -2.6878917723        2.5846829084
 H          2.8862201794       -4.3039161527        2.6460798375
 H          0.6258151589       -4.6050717312        2.0539106985
 H          1.5561927680       -4.8939201613        0.5730591580
 O         -0.6789828404       -2.7625449802        1.3827823898
 C         -1.6365079401       -1.8676458396        0.9298871106
 O         -2.5426119595       -1.6281334193        1.7519244711
 H         -0.4676183790        1.0381664801       -0.1474481091
 C         -1.3641331385        1.4335446605        0.3076780015
 C         -2.5825086790        0.8227423013        0.0364460419
 C         -3.7307351084        1.3392543917        0.6202898527
 C         -3.6466416173        2.4157755414        1.4873459930
 C         -2.4269473369        2.9906158406        1.7920245926
 C         -1.2735590875        2.4919449002        1.1948407018
 N         -0.0224683970        3.0706599594        1.4485509314
 S          1.3976107824        2.2147687586        1.2703779803
 O          1.2539451818        0.8217897786        1.6291151200
 O          2.3675565532        2.9598934278        2.0471292801
 C          1.8230575816        2.3722888889       -0.4537141598
 C          2.9545132510        1.7023656184       -0.8751273806
 C          3.3485607004        1.8052700086       -2.1992879308
 C          2.6069492504        2.5782224893       -3.0788471502
 C          1.4785146510        3.2516955498       -2.6395329794
 C          1.0801964916        3.1536648796       -1.3149767492
 H          0.2024962421        3.6637369600       -0.9542233786
 H          0.9022416810        3.8523638804       -3.3248459589
 H          2.9097968099        2.6541201895       -4.1112067503
 H          4.2272709599        1.2803068682       -2.5386257014
 H          3.4993647711        1.1102248479       -0.1575746111
 H          0.0136350538        3.7402979891        2.2015448315
 H         -2.3616373060        3.8137264804        2.4869487528
 H         -4.5441310169        2.8028789618        1.9455113836
 H         -4.6878457588        0.8898824724        0.4132726130
 C         -2.5589528501       -0.3837776884       -0.8676595985
 H         -2.2083551805       -0.0658800583       -1.8608030686
 C         -3.9010964606       -1.0670757576       -1.0155610580
 C         -4.9011354008       -0.5543972667       -2.0074204273
 C         -4.1848253117       -1.8450259371       -2.2643648881
 H         -4.7362815822       -2.7694395268       -2.1811724681
 H         -3.4150802921       -1.8632212073       -3.0219490985
 H         -5.9488340907       -0.5939162862       -1.7504255968
 H         -4.6228102706        0.3050905833       -2.5978875072
 H         -4.2665768004       -1.4734497177       -0.0791832080
 O         -0.2118482013       -1.1393842693       -2.3175508199
