  62
        -98.94130648
 C         -1.0323148031       -1.2872644935       -0.0313348889
 C         -1.5861907557       -0.3144437498        0.8316084198
 C         -2.5010914691        0.6622186721        0.2188159247
 C         -2.7586670405        0.5863633136       -1.0980806834
 C         -3.6072785497        1.5044475749       -1.9422355241
 C         -4.9454546731        1.9764571150       -1.3575928630
 C         -5.6522467878        0.9576147991       -0.4513659231
 H         -6.6843661700        0.8414380661       -0.7869490361
 H         -5.1691462391       -0.0170522160       -0.5388207626
 C         -5.6802881663        1.3844267083        1.0181203091
 H         -5.9242429199        2.4477962864        1.0686773980
 H         -6.4802315727        0.8406427874        1.5261928853
 C         -4.3921678393        1.1286376503        1.7991006642
 H         -4.2578645546        0.0541422901        1.9491460179
 H         -4.5034679761        1.5798807819        2.7878778828
 C         -3.1068004756        1.6708599616        1.1527870953
 H         -2.3717939276        1.8251354642        1.9478036096
 H         -3.2826214216        2.6229077734        0.6571373911
 H         -5.5893486725        2.2201191484       -2.2044404870
 H         -4.7945348425        2.9019947352       -0.8035725779
 H         -2.9978945300        2.3755617451       -2.2032342577
 H         -3.7862951333        0.9523344007       -2.8683751646
 O         -2.2171525288       -0.3805256705       -1.8915600925
 C         -1.3321223306       -1.3236808069       -1.3922223502
 O         -0.9004775169       -2.1245107395       -2.2437482932
 O         -1.3134551534       -0.2502163786        2.0606087180
 C         -0.0289415252       -2.2749907199        0.5275676469
 C          1.3297724632       -2.1022741415       -0.1110873858
 C          2.2559954811       -3.1375091005       -0.1783164468
 C          3.5019519258       -2.9271708340       -0.7424646116
 C          3.8597486111       -1.6860136573       -1.2375317494
 C          2.9416592118       -0.6439730518       -1.1744845280
 C          1.6945290192       -0.8605040707       -0.6104182039
 H          0.9829468098       -0.0506024089       -0.5954782691
 N          3.2533753262        0.6242789508       -1.6781779267
 S          2.5022002100        2.0015550701       -1.1189959330
 O          1.1419025385        2.0727564024       -1.5939699424
 O          3.3757591632        3.0723490342       -1.5515903899
 C          2.5400355687        1.8762137698        0.6595989341
 C          3.7717625350        1.8136690067        1.2819236072
 C          3.8199114628        1.6785623006        2.6594933754
 C          2.6420303839        1.6001895790        3.3877454433
 C          1.4137315489        1.6722334284        2.7498598464
 C          1.3612528175        1.8167031729        1.3729454006
 H          0.4205936721        1.8682645894        0.8461446173
 H          0.4921597657        1.5920453388        3.3041318761
 H          2.6793053000        1.4825653721        4.4592342515
 H          4.7729868077        1.6279255555        3.1607705745
 H          4.6663138479        1.8810699278        0.6846946912
 H          4.2138735598        0.7728915257       -1.9459947559
 H          4.8307477185       -1.5251565402       -1.6795216510
 H          4.2081725284       -3.7416753303       -0.7945344638
 H          1.9971350850       -4.1111445814        0.2046979375
 H          0.0682919093       -2.0184123734        1.5943172897
 C         -0.5516207494       -3.6942338633        0.4162853088
 C         -0.2695565615       -4.7010999012        1.4902570671
 C         -1.6477241805       -4.1336700902        1.3393323810
 H         -2.4310651318       -4.7647570251        0.9471659279
 H         -1.9899066521       -3.4194246487        2.0741846528
 H         -0.1068247833       -5.7287832960        1.2020124290
 H          0.3147949341       -4.3798779884        2.3392490501
 H         -0.5964826964       -4.0381876486       -0.6109815232
