  62
        -98.94489357
 C         -1.8996318285       -1.0786513458       -0.2289986624
 C         -3.0335865062       -1.1728405175        0.6223959507
 C         -4.2680420989       -0.5484277940        0.1381565326
 C         -4.2818218472        0.0505074705       -1.0660605076
 C         -5.4673101582        0.7111970597       -1.7152647275
 C         -5.7002177954        2.1596139440       -1.2639935122
 C         -6.2452691990        2.3189442834        0.1559301365
 H         -6.5671839822        3.3569900742        0.2605951155
 H         -7.1283610833        1.6909030569        0.2775746245
 C         -5.2297804945        2.0036717752        1.2632852542
 H         -4.2199627795        2.0127539067        0.8459358413
 H         -5.2662673159        2.7864198045        2.0243866178
 C         -5.4595279728        0.6698223567        1.9741426986
 H         -6.4103389343        0.6998738101        2.5108331879
 H         -4.6618581610        0.5324229530        2.7086258263
 C         -5.4624991309       -0.5497881524        1.0433488147
 H         -5.4123474484       -1.4511473760        1.6590141425
 H         -6.3823373040       -0.5752449966        0.4594300830
 H         -4.7613976122        2.7106358886       -1.3576220990
 H         -6.4171142402        2.6053929173       -1.9574616960
 H         -5.2729074725        0.7126703348       -2.7899999147
 H         -6.3645627995        0.1214178509       -1.5253460923
 O         -3.1835731542        0.1037391314       -1.8621342126
 C         -1.9668835721       -0.4327111743       -1.4632605975
 O         -1.0592574817       -0.2651601631       -2.3040069454
 O         -3.0138156064       -1.7634290103        1.7344538862
 C         -0.6167812477       -1.7140569051        0.2810766981
 C          0.3250077306       -0.6776354814        0.8458127580
 C          0.6374880960       -0.6595394343        2.1998960325
 C          1.5214299692        0.2766779428        2.7087241254
 C          2.1121425992        1.2111717652        1.8777024911
 C          1.8002626838        1.2042739023        0.5241600362
 C          0.9195037175        0.2619977384        0.0151526819
 H          0.6745704994        0.2687827579       -1.0364804481
 N          2.4109167633        2.1432724269       -0.3333464760
 S          4.0875190344        2.1029709106       -0.3526020790
 O          4.5917121817        2.8005360230        0.8038559181
 O          4.4789100445        2.6392215304       -1.6367658987
 C          4.4852463858        0.3679336061       -0.2393526747
 C          4.2208441316       -0.4297130963       -1.3348971191
 C          4.4475496038       -1.7927881022       -1.2414628256
 C          4.9227763095       -2.3335936793       -0.0565592279
 C          5.1844894615       -1.5189220379        1.0337287533
 C          4.9626258415       -0.1539891774        0.9454376090
 H          5.1535005629        0.5150666953        1.7681717986
 H          5.5557130812       -1.9424721955        1.9528499287
 H          5.0905267276       -3.3966178840        0.0160383029
 H          4.2484806380       -2.4264233610       -2.0910516814
 H          3.8528776601        0.0248010730       -2.2411432294
 H          2.0513870109        2.1000646460       -1.2766816444
 H          2.8074265047        1.9453988529        2.2516230366
 H          1.7534288562        0.2783339579        3.7627042331
 H          0.1728293136       -1.3803118793        2.8567358307
 H         -0.9332231614       -2.3622735074        1.1090554116
 C          0.0900804957       -2.5677801582       -0.7545321387
 C          1.1052777902       -3.5687251020       -0.2939076273
 C         -0.2144120828       -4.0323016891       -0.8320215072
 H         -0.2427246891       -4.5008324141       -1.8043698696
 H         -0.9392571433       -4.4298596392       -0.1366484599
 H          1.9881386160       -3.7184779365       -0.8951343844
 H          1.2774417452       -3.6510589159        0.7682646486
 H          0.2778362555       -2.0500344725       -1.6858226734
