  62
        -98.93342974
 C         -2.2642156796       -0.7707957493        0.1174325404
 C         -2.3774225595        0.6098959408        0.4216766200
 C         -3.5215245794        1.3332300808       -0.1587820403
 C         -4.3747483294        0.6662054606       -0.9547840202
 C         -5.6244785593        1.1882987206       -1.6082078405
 C         -6.8554033894        0.9037000709       -0.7309714105
 C         -7.1544793594        1.9680983013        0.3239429492
 H         -7.5285207593        2.8674495212       -0.1696162911
 H         -7.9577384395        1.5826656315        0.9559846492
 C         -5.9719246094        2.3566140714        1.2153043992
 H         -6.3718911395        2.8095405817        2.1246150090
 H         -5.4259060995        1.4601506914        1.5148727495
 C         -5.0125225193        3.3520617411        0.5456121790
 H         -5.4831530791        3.7517635109       -0.3523692511
 H         -4.8479441592        4.2007130713        1.2128405188
 C         -3.6258430493        2.7918044609        0.1946380193
 H         -2.9539396794        2.9176843910        1.0497773893
 H         -3.1977012092        3.3811020106       -0.6234975408
 H         -7.7314436493        0.8115736509       -1.3760273206
 H         -6.7030557595       -0.0636493689       -0.2456652702
 H         -5.5318704492        2.2479183405       -1.8265370107
 H         -5.7340565093        0.6427465903       -2.5477199903
 O         -4.2242001895       -0.6551643194       -1.2343904398
 C         -3.1897937696       -1.4102898794       -0.7078115395
 O         -3.2274443197       -2.6065414195       -1.0552724192
 O         -1.5604924995        1.2152695409        1.1697198199
 C         -1.1012534198       -1.5170816692        0.7485331507
 C          0.0384819503       -1.7246143496       -0.2211434591
 C         -0.1060005097       -2.5107441499       -1.3597939089
 C          0.9599032204       -2.6935469802       -2.2212646488
 C          2.1853363704       -2.1053100803       -1.9644444088
 C          2.3439940104       -1.3259914200       -0.8239899690
 C          1.2704890303       -1.1391128596        0.0359688108
 H          1.3989733703       -0.5145622694        0.9074952006
 N          3.5983048504       -0.7704994200       -0.5191573991
 S          3.7017637905        0.7081492202        0.2858486605
 O          3.3927550403        0.5026263506        1.6782226806
 O          2.9294023707        1.7134484801       -0.4101075298
 C          5.4470546905        1.0259370800        0.1023441606
 C          5.8847697107        1.9194011497       -0.8565036196
 C          7.2470651408        2.1291759895       -1.0053052795
 C          8.1432997406        1.4431979096       -0.1997172793
 C          7.6887559504        0.5501407899        0.7595332609
 C          6.3283979204        0.3373175001        0.9147212509
 H          5.9283931703       -0.3392165297        1.6517309610
 H          8.3884179603        0.0205495300        1.3857895411
 H          9.2026425906        1.6074421695       -0.3184373892
 H          7.6030611109        2.8251930093       -1.7476924797
 H          5.1508858208        2.4347327296       -1.4552449298
 H          4.2346935405       -0.7986817503       -1.3046025290
 H          3.0156452105       -2.2515016205       -2.6386270287
 H          0.8335684304       -3.2999691805       -3.1055461086
 H         -1.0631183397       -2.9623774398       -1.5688169389
 H         -0.7356342198       -0.8522180490        1.5437262205
 C         -1.5076776800       -2.8357333590        1.3792928510
 C         -0.6368342201       -3.4239925488        2.4467933413
 C         -1.9762735701       -2.8527003786        2.8016992010
 H         -2.7727013002       -3.5290966584        3.0733662511
 H         -2.0050118900       -1.9097782184        3.3288544407
 H         -0.5106793402       -4.4952139388        2.4762080316
 H          0.2435641399       -2.8679210388        2.7335704012
 H         -1.9896761200       -3.5138615291        0.6874649112
