  62
        -98.94016709
 C         -2.0443269584       -1.4720849474        0.5099572353
 C         -2.0461301286       -0.2944094994        1.3015093294
 C         -3.1042869376        0.6820491138        1.0198153642
 C         -4.0006755986        0.4141509841        0.0531009766
 C         -5.0898250493        1.3472467157       -0.3887119841
 C         -4.6153203011        2.2472083873       -1.5387989005
 C         -3.2687324085        2.9243147187       -1.2818077655
 H         -2.4877516917        2.1614028043       -1.2392479602
 H         -3.0546490616        3.5559081647       -2.1465997686
 C         -3.2185828652        3.7725819110       -0.0033530452
 H         -2.7322216388        4.7231981414       -0.2321390803
 H         -4.2317136887        4.0017371226        0.3291117251
 C         -2.4384004855        3.1354287821        1.1480042742
 H         -2.2711830698        3.9009198964        1.9103963823
 H         -1.4617729919        2.8033378132        0.7886958381
 C         -3.1192390119        1.9447433978        1.8340708922
 H         -2.5587236074        1.7196645381        2.7460914775
 H         -4.1399071159        2.2115093254        2.1155638773
 H         -5.3786307457        3.0065433766       -1.7189565823
 H         -4.5246118494        1.6367371536       -2.4402453330
 H         -5.4058277282        1.9553694459        0.4567261920
 H         -5.9370056432        0.7509017369       -0.7317357438
 O         -3.9794386517       -0.7295279926       -0.6742179001
 C         -2.9913572502       -1.6919770427       -0.4909951507
 O         -3.0896149926       -2.6595728197       -1.2664228199
 O         -1.1964817148       -0.0754726100        2.2065110616
 C         -0.9189712979       -2.4547908742        0.7829283291
 C          0.2910709293       -2.0419926558       -0.0156021091
 C          0.2198294678       -1.8880559065       -1.3971438013
 C          1.3267367709       -1.4704747132       -2.1129623148
 C          2.5180892699       -1.1837570058       -1.4684808435
 C          2.5928774315       -1.3151172110       -0.0884635990
 C          1.4838041638       -1.7491303621        0.6274154413
 H          1.5434232303       -1.8394884896        1.7032480483
 N          3.7913424034       -1.0035331822        0.5757752781
 S          4.5699882680        0.4211024854        0.1650471803
 O          5.2857996284        0.2373655719       -1.0724730436
 O          5.3745249485        0.7537714869        1.3186055505
 C          3.2689135317        1.6209517020       -0.0568542067
 C          2.9997714241        2.1248313269       -1.3129366345
 C          1.9629624858        3.0320217095       -1.4620604089
 C          1.2174736448        3.4171182676       -0.3587452132
 C          1.5025091239        2.9043124370        0.8977057950
 C          2.5357428209        1.9951354599        1.0517454668
 H          2.7838577449        1.5830121435        2.0166273027
 H          0.9203713156        3.2010340724        1.7555872069
 H          0.4095794323        4.1224130159       -0.4770699123
 H          1.7383610533        3.4342380934       -2.4368187184
 H          3.6065982936        1.8044993840       -2.1440053081
 H          3.7401309325       -1.1073472402        1.5787651406
 H          3.3893363398       -0.8595228210       -2.0137012273
 H          1.2616898888       -1.3631295988       -3.1851204268
 H         -0.7138264778       -2.0973590837       -1.8983253975
 H         -0.6738412814       -2.3104363362        1.8473261744
 C         -1.3044859612       -3.9146701284        0.6039887109
 C         -0.7363398560       -4.8016311256       -0.4589962374
 C         -0.3210714538       -4.9882743151        0.9674678985
 H         -0.6730762735       -5.8560460388        1.5043382293
 H          0.6760432371       -4.6745815826        1.2392843110
 H         -1.3983297741       -5.5257129096       -0.9087295927
 H         -0.0171047877       -4.3860425042       -1.1468406576
 H         -2.3401184199       -4.0960300325        0.8710297576
