  62
        -98.93899286
 C         -2.3403777799       -0.7833143395        0.6179458892
 C         -3.4321108497       -0.9890370196       -0.2611880010
 C         -4.6552109897       -0.2292054494        0.0421230585
 C         -4.6822145899        0.5939497609        1.1047978383
 C         -5.8399946399        1.4683679411        1.4880942378
 C         -5.7283083396        2.8550791309        0.8389065275
 C         -5.4390662592        2.8136503605       -0.6616664225
 H         -5.4117918690        3.8464798604       -1.0157699327
 H         -4.4430215892        2.3937151204       -0.8208030821
 C         -6.4622970791        2.0177864204       -1.4839214925
 H         -7.3798379392        1.8890064007       -0.9087069327
 H         -6.7170421288        2.5929464402       -2.3765365627
 C         -5.9674032091        0.6510883503       -1.9606727821
 H         -4.9995289090        0.7641247500       -2.4554263119
 H         -6.6739261189        0.2743356901       -2.7049915622
 C         -5.8303756795       -0.4236295695       -0.8749185818
 H         -6.7577830396       -0.4901042293       -0.3028850020
 H         -5.6647773495       -1.3820465096       -1.3751750015
 H         -6.6597707896        3.3953842610        1.0174241071
 H         -4.9186541896        3.4016191009        1.3281455375
 H         -6.7677476699        0.9871464711        1.1848284976
 H         -5.8383820401        1.5835595313        2.5732939577
 O         -3.6207369201        0.7580616909        1.9353028485
 C         -2.4340591601        0.0842552608        1.7114732090
 O         -1.5450540903        0.3308899509        2.5526624991
 H          1.3950989701       -0.2852678199        0.8273587500
 C          1.0900393904       -0.2705460501       -0.2092558301
 C         -0.1308401796       -0.8132129000       -0.5819725502
 C         -0.5073487893       -0.7604229703       -1.9201943703
 C          0.3278035510       -0.1816566906       -2.8579730203
 C          1.5580950910        0.3323834393       -2.4877943501
 C          1.9398244107        0.2908334696       -1.1520590800
 N          3.1733960406        0.8191029896       -0.7389818598
 S          3.9899719102        0.0389199298        0.5167338906
 O          3.8945242901       -1.3940967102        0.3527824809
 O          3.5275783199        0.5703285501        1.7745549504
 C          5.6597485403        0.5845749195        0.2099923009
 C          6.0472342804        1.8310466296        0.6645613207
 C          7.3353004905        2.2691171794        0.4008657509
 C          8.2091549806        1.4588042591       -0.3089798987
 C          7.8066671606        0.2094877491       -0.7566075985
 C          6.5193214304       -0.2343068607       -0.4978068087
 H          6.1647068604       -1.2007731208       -0.8181603985
 H          8.4893403506       -0.4195209411       -1.3047731581
 H          9.2114734607        1.8018106190       -0.5112774585
 H          7.6528099905        3.2381906895        0.7505509608
 H          5.3369586003        2.4203882898        1.2209117004
 H          3.7873534508        1.0389726193       -1.5113876197
 H          2.2153312812        0.7687017891       -3.2246959800
 H          0.0239512713       -0.1445028609       -3.8933405104
 H         -1.4595334992       -1.1745972803       -2.2134172705
 C         -0.9973937799       -1.4780957597        0.4614526397
 H         -0.4892738002       -1.3593910195        1.4288674398
 C         -1.1135439100       -2.9624635198        0.1656533200
 C          0.0963276698       -3.8257220898        0.3541159006
 C         -1.0643988904       -3.9440127795        1.2950646403
 H         -1.6857033505       -4.8252894394        1.2395653503
 H         -0.9516190306       -3.5507352993        2.2953788302
 H          0.2710273499       -4.6263258500       -0.3483070992
 H          1.0002196098       -3.3513980998        0.7097640007
 H         -1.7693173798       -3.1861346899       -0.6651303001
 O         -3.4145637495       -1.7614620198       -1.2560053508
