  62
        -98.93563330
 C         -1.8930333227       -1.2055700465        0.0072942286
 C         -2.1443772009        0.1171028313       -0.4256214029
 C         -3.4176191135        0.7324179626        0.0111893178
 C         -4.2388294956        0.0370154116        0.8180376046
 C         -5.5856940747        0.4421805771        1.3544621570
 C         -6.6973694328        0.3425347707        0.2967330333
 C         -6.3240463568        0.8805249497       -1.0822631090
 H         -7.1466485595        0.6472546221       -1.7634463960
 H         -5.4420823369        0.3506673262       -1.4467393056
 C         -6.0758778887        2.3855106747       -1.1486872940
 H         -6.9780353547        2.9116089776       -0.8284013592
 H         -5.8984475199        2.6395248344       -2.1969170404
 C         -4.8945572475        2.9056028034       -0.3273912558
 H         -5.1458773063        2.9609091927        0.7283971707
 H         -4.6994467725        3.9318386664       -0.6528605280
 C         -3.5923952873        2.1348682109       -0.5214403463
 H         -2.7751417762        2.7212485652       -0.0834681820
 H         -3.3655396211        2.0811400197       -1.5922963324
 H         -7.5772426623        0.8691311545        0.6700028702
 H         -6.9590376539       -0.7121951518        0.1818069223
 H         -5.5358086133        1.4429565474        1.7732095496
 H         -5.8184832905       -0.2471880163        2.1691252968
 O         -3.9404666786       -1.2252064260        1.2389753246
 C         -2.7885689388       -1.8739058002        0.8471038275
 O         -2.6710799374       -3.0303231409        1.3003329487
 O         -1.3598172424        0.7858638391       -1.1486211333
 C         -0.6598753906       -2.0014269559       -0.3913821190
 C          0.5211840460       -1.6772479529        0.4858591199
 C          1.2531528348       -2.6864104178        1.1000284628
 C          2.3494803839       -2.3825941381        1.8890331449
 C          2.7404588712       -1.0691247790        2.0776511219
 C          2.0161523403       -0.0536559891        1.4663141658
 C          0.9159846048       -0.3602293460        0.6788140897
 H          0.3591126339        0.4330965067        0.2023935581
 N          2.4100395245        1.2895127358        1.6386852062
 S          3.9704594352        1.6803286400        1.1667086140
 O          4.9024221444        1.1160409984        2.1101604785
 O          3.9856840708        3.1192572922        1.0363093584
 C          4.1671830407        0.9055436746       -0.4265898839
 C          4.7046103226       -0.3636797584       -0.5057232058
 C          4.7749901301       -0.9834156876       -1.7431742897
 C          4.3121090189       -0.3272655192       -2.8730118456
 C          3.7811994015        0.9500296144       -2.7774481797
 C          3.6996759120        1.5717006172       -1.5420767411
 H          3.2923987449        2.5634365792       -1.4258304605
 H          3.4217171516        1.4590428374       -3.6571559450
 H          4.3629418934       -0.8141548249       -3.8337355453
 H          5.1866243993       -1.9766257062       -1.8207316886
 H          5.0608823013       -0.8370343409        0.3940708238
 H          1.7590575769        1.9414033177        1.2234153511
 H          3.5942767096       -0.8135779228        2.6843083084
 H          2.9048593176       -3.1767602804        2.3642150435
 H          0.9493665818       -3.7143223564        0.9660907466
 H         -0.9311787502       -3.0518883539       -0.2025760492
 C         -0.3395860283       -1.8830017641       -1.8769379282
 C          0.8255261450       -1.1210520617       -2.4244378241
 C          0.8352802084       -2.6177315899       -2.4525759404
 H          0.7158956814       -3.1228528540       -3.3987852580
 H          1.4898844613       -3.1227182043       -1.7584964889
 H          0.6775239769       -0.5812857042       -3.3469314976
 H          1.4839882379       -0.6205332516       -1.7327045485
 H         -1.2444584252       -1.8684871830       -2.4767565419
