  62
        -98.94496230
 C         -2.5491241262       -0.1531980858        0.4500684273
 C         -2.4266223228        0.5317090056       -0.7824925045
 C         -2.2322362072        1.9849246032       -0.6911267989
 C         -2.1811294233        2.5692072176        0.5194394661
 C         -1.9785966042        4.0378040271        0.7555773019
 C         -0.4969094277        4.3912739388        0.9373012190
 C          0.4215401378        3.8271456200       -0.1471094735
 H          1.4254918725        4.2075645890        0.0562815426
 H          0.4742521535        2.7401135472       -0.0480958558
 C          0.0203684020        4.1944222670       -1.5823910229
 H         -0.6367374538        5.0652311150       -1.5733774919
 H          0.9216302260        4.4729710451       -2.1325047519
 C         -0.6453545823        3.0616034085       -2.3663377893
 H         -0.0548106924        2.1480730527       -2.2554650613
 H         -0.6419839936        3.3319034200       -3.4258719874
 C         -2.0955743858        2.7446620270       -1.9800007994
 H         -2.6809328569        3.6662621387       -1.9513609478
 H         -2.5134529641        2.0941404946       -2.7539738561
 H         -0.4073732410        5.4795446782        0.9624346707
 H         -0.1618897809        3.9992012924        1.9006773339
 H         -2.3927200325        4.5914941609       -0.0851629622
 H         -2.5201100652        4.3138224834        1.6625254282
 O         -2.2978551752        1.8767904407        1.6828922561
 C         -2.4587667091        0.5009792268        1.6767034005
 O         -2.5207897644       -0.0160519611        2.8131192773
 H         -0.1622653514       -0.9054306534        0.5187116151
 C         -0.2925455383       -1.7688651288       -0.1176925044
 C         -1.5615818925       -2.3097316034       -0.2781357886
 C         -1.7066580729       -3.4316678722       -1.0837223665
 C         -0.6062236063       -3.9805769692       -1.7202290676
 C          0.6514351311       -3.4268222847       -1.5725089786
 C          0.8065634031       -2.3010036764       -0.7691252155
 N          2.0603639997       -1.6804273382       -0.6463342526
 S          2.3628459109       -0.5919088724        0.5986020230
 O          2.1283309434       -1.2150530355        1.8841622382
 O          1.6500739664        0.6318023887        0.3349687877
 C          4.1112961577       -0.3396073652        0.3598789402
 C          4.5326282621        0.6371729126       -0.5218978269
 C          5.8918548598        0.8105746569       -0.7303369359
 C          6.8018999313        0.0078340981       -0.0587749576
 C          6.3644507506       -0.9669572051        0.8254586914
 C          5.0065899817       -1.1452953035        1.0382108942
 H          4.6205394297       -1.8810228391        1.7254523138
 H          7.0741352217       -1.5868681863        1.3491820348
 H          7.8589802202        0.1450361741       -0.2228297076
 H          6.2351937353        1.5700944581       -1.4139936644
 H          3.7877667331        1.2409573898       -1.0139957266
 H          2.8414490444       -2.2939473191       -0.8288067842
 H          1.5048736836       -3.8491760865       -2.0799821603
 H         -0.7317610361       -4.8523336563       -2.3444007139
 H         -2.6807359265       -3.8734806015       -1.2164614588
 C         -2.7109058075       -1.6617707664        0.4574791820
 H         -2.6549694751       -1.9694982994        1.5132457638
 C         -4.0684277645       -2.0491704120       -0.0936932628
 C         -4.7800417561       -3.2624081135        0.4231012264
 C         -5.2730014089       -1.8942710632        0.7836417660
 H         -6.1919143207       -1.5404382898        0.3411212125
 H         -5.1064142385       -1.5362083466        1.7896175406
 H         -4.2897595558       -3.8404598706        1.1919953493
 H         -5.3665163582       -3.8496084626       -0.2673787274
 H         -4.1755653473       -1.7963748616       -1.1422843005
 O         -2.4870747759       -0.0399926405       -1.9029091752
