  62
        -98.94371380
 C          1.5451120236       -1.0725238802       -0.2721696135
 C          2.5846580555       -0.5754738633       -1.0965472199
 C          3.1733203148        0.7091562980       -0.6994925587
 C          2.6563115104        1.3690137275        0.3528600964
 C          3.1848993009        2.6644221044        0.8957939053
 C          4.2379338417        2.4232384003        1.9867093246
 C          5.3213398707        1.4210125285        1.5879021903
 H          6.0236032986        1.3526851658        2.4213175926
 H          4.8671017596        0.4347699653        1.4682207377
 C          6.0829026382        1.7859848930        0.3060188977
 H          7.1505738757        1.6342128874        0.4773830060
 H          5.9380148055        2.8424332734        0.0774158754
 C          5.7049999270        0.9479319993       -0.9167759579
 H          5.7595857624       -0.1141682396       -0.6645272111
 H          6.4439412634        1.1362568459       -1.7000559740
 C          4.3217829673        1.2295327958       -1.5175404395
 H          4.2094648105        2.3004875810       -1.7006663736
 H          4.2636878463        0.7101836911       -2.4789604631
 H          4.6990217751        3.3801389123        2.2377281722
 H          3.7318505412        2.0451901377        2.8779336091
 H          3.6150310416        3.2438521479        0.0808441662
 H          2.3483896304        3.2223912809        1.3205242457
 O          1.6108590408        0.8998084230        1.0754906844
 C          1.0181989166       -0.3188597327        0.7793770408
 O          0.0614268948       -0.6053821165        1.5222529707
 O          2.9970880988       -1.1793211009       -2.1251064890
 C          0.9153557635       -2.4016646444       -0.6560252793
 C         -0.5835350612       -2.2479775437       -0.6731561160
 C         -1.4595750694       -3.0256499524        0.0718593456
 C         -2.8189070217       -2.7621701209        0.0599403588
 C         -3.3284283883       -1.7059499764       -0.6729344008
 C         -2.4598919151       -0.9308782669       -1.4293024188
 C         -1.1083349101       -1.2202779501       -1.4486717233
 H         -0.4373713174       -0.5973277177       -2.0290510130
 N         -2.9749069937        0.2169086497       -2.1030256389
 S         -2.7268413470        1.5954955115       -1.1524392655
 O         -3.3129913251        2.6922033046       -1.8956472210
 O         -1.3269053309        1.7609886798       -0.8193123849
 C         -3.7005893909        1.2364111145        0.2879084020
 C         -5.0517463814        1.5225170501        0.2457641452
 C         -5.8385615166        1.1980402459        1.3385564026
 C         -5.2630240862        0.5899023228        2.4445552758
 C         -3.9059994274        0.3073090504        2.4674437454
 C         -3.1096652419        0.6304830351        1.3788915547
 H         -2.0520764030        0.4120080800        1.3652174992
 H         -3.4554548525       -0.1704823606        3.3224974856
 H         -5.8755021982        0.3325367265        3.2943276016
 H         -6.8943534170        1.4155912020        1.3237212265
 H         -5.4491448832        1.9955851232       -0.6371096273
 H         -2.5207199070        0.3773829061       -2.9935562984
 H         -4.3795136761       -1.4678171436       -0.6625419839
 H         -3.4856599212       -3.3715591356        0.6499249255
 H         -1.0736995959       -3.8201195126        0.6891913772
 H          1.2540999032       -2.5728591162       -1.6922544857
 C          1.4003282476       -3.5888624235        0.1615222046
 C          2.7488434190       -3.5735735659        0.8153830465
 C          1.5090751567       -3.5401398924        1.6550403011
 H          1.2494679404       -4.4255956900        2.2164516838
 H          1.2416772609       -2.6168190695        2.1440423383
 H          3.3383895702       -4.4779090348        0.7978098208
 H          3.3342835036       -2.6691836806        0.7313400066
 H          1.0916699985       -4.5338496175       -0.2746443000
