  62
        -98.94593794
 C         -1.5765068330       -1.5707703399       -0.2835445988
 C         -1.4369877516       -0.2058827121       -0.6343622625
 C         -2.6903650897        0.5545855925       -0.7467079699
 C         -3.8623189292       -0.0679357435       -0.5257463911
 C         -5.2038988378        0.6047173226       -0.5385747413
 C         -5.5814228713        1.1125820092        0.8604334550
 C         -4.4768381784        1.9165815034        1.5468693388
 H         -4.8673931529        2.2437720007        2.5130196130
 H         -3.6291711107        1.2579233333        1.7497156137
 C         -3.9909687550        3.1364675800        0.7517876685
 H         -3.9106157781        3.9871505688        1.4317737753
 H         -4.7275572707        3.3988115822       -0.0085717885
 C         -2.6218003093        2.9606610279        0.0920654902
 H         -1.8982946126        2.6082831098        0.8313204783
 H         -2.2867077744        3.9411267693       -0.2553756243
 C         -2.5798721685        2.0085521093       -1.1091671387
 H         -3.3525497776        2.2867866558       -1.8285920465
 H         -1.6021166319        2.1196411967       -1.5862914964
 H         -6.4804013009        1.7257232152        0.7739416277
 H         -5.8180795611        0.2507576056        1.4888995412
 H         -5.1827792715        1.4332049779       -1.2438061802
 H         -5.9508635164       -0.1203838623       -0.8659700206
 O         -3.9552562318       -1.3852871390       -0.2074234881
 C         -2.8186249294       -2.1647537023       -0.0642215504
 O         -3.0426386000       -3.3497242680        0.2574284432
 O         -0.3289459948        0.3505294709       -0.8409943352
 C         -0.3358540720       -2.4303122880       -0.1124535231
 C          0.5303492595       -1.8136647753        0.9580779886
 C          0.0104886070       -1.6992750759        2.2458708131
 C          0.7455656203       -1.1096594515        3.2551349172
 C          2.0105272379       -0.6088210779        2.9985726738
 C          2.5385502272       -0.7208815679        1.7184801126
 C          1.8035763303       -1.3292948904        0.7090971750
 H          2.2424850644       -1.4089230982       -0.2703836114
 N          3.8229901587       -0.2378048113        1.4345981122
 S          4.1968920261        0.4162704130       -0.0536577484
 O          4.3218964178       -0.6269565881       -1.0410968275
 O          5.4032378187        1.1792746392        0.1982463244
 C          2.8851765176        1.5412276506       -0.4941084981
 C          2.3998362413        2.4128356230        0.4592396954
 C          1.4339661270        3.3345770323        0.0929250374
 C          0.9809616066        3.3776901348       -1.2155872763
 C          1.4776927052        2.4957812868       -2.1603739795
 C          2.4370934467        1.5658310888       -1.7972961430
 H          2.8400988533        0.8527726077       -2.4990793008
 H          1.1145449767        2.5213797678       -3.1757665097
 H          0.2305855754        4.0994993661       -1.4988399085
 H          1.0345535841        4.0146147305        0.8286533283
 H          2.7728944630        2.3650961216        1.4697053034
 H          4.2735896114        0.2606749967        2.1873793967
 H          2.5849123089       -0.1401022319        3.7830757891
 H          0.3296282524       -1.0303018479        4.2483022732
 H         -0.9841331424       -2.0786087535        2.4398456247
 H         -0.6856173641       -3.4089277796        0.2459112028
 C          0.3710437025       -2.6189125105       -1.4372758418
 C          1.2939343454       -3.7828696357       -1.6317083925
 C         -0.0324670667       -3.7524980951       -2.3289931533
 H         -0.0519908076       -3.5878380529       -3.3958983807
 H         -0.8128295813       -4.4105638799       -1.9747549371
 H          2.1907052373       -3.6370975237       -2.2151745394
 H          1.4160858751       -4.4658286873       -0.8044342952
 H          0.6306580984       -1.6802454402       -1.9133492114
