  62
        -98.94480292
 C         -1.6925955911       -1.0225474588       -0.6865673951
 C         -1.6613296585        0.1133537986        0.1593402632
 C         -2.9270871811        0.4421635182        0.8296677849
 C         -4.0094183967       -0.3339968482        0.6429597488
 C         -5.3609542667       -0.1398078644        1.2752220773
 C         -6.2553996986        0.8686619493        0.5411025516
 C         -5.8492164196        2.3346065188        0.6981725525
 H         -6.6780528355        2.9381012804        0.3227636367
 H         -5.7318187184        2.5663435597        1.7572766653
 C         -4.5727087121        2.7232770948       -0.0606247819
 H         -4.3515067668        1.9635577479       -0.8136160308
 H         -4.7374251364        3.6633225231       -0.5918789388
 C         -3.3413676645        2.9138502255        0.8253293379
 H         -3.4999228029        3.7599975721        1.4976890968
 H         -2.4892505081        3.1495268854        0.1830619217
 C         -2.9734487075        1.6848015592        1.6669203987
 H         -1.9759920142        1.8389402928        2.0874424827
 H         -3.6811787319        1.5650832861        2.4872494555
 H         -6.2776451082        0.6081208640       -0.5195148904
 H         -7.2680886923        0.7507544266        0.9335071825
 H         -5.8543896111       -1.1140056000        1.2579987325
 H         -5.2384422327        0.1686090194        2.3139853749
 O         -3.9900133273       -1.4342191196       -0.1556950246
 C         -2.8424457546       -1.7997862695       -0.8393758967
 O         -2.9699573383       -2.8241268911       -1.5406637218
 H          1.9693817968       -0.4525053640       -0.5906878242
 C          1.7111709627       -1.3705583492       -0.0948728389
 C          0.5333907003       -2.0240996152       -0.4162257838
 C          0.2300783043       -3.2163173819        0.2377083164
 C          1.0883229919       -3.7370870887        1.1861473021
 C          2.2569147370       -3.0706738804        1.5160383721
 C          2.5644715935       -1.8772850972        0.8767439231
 N          3.7473090110       -1.1749166205        1.1716453507
 S          3.6129786390        0.4457024284        1.6123603878
 O          4.8679452309        0.7325558256        2.2783059501
 O          2.4210237423        0.6795987266        2.3927407425
 C          3.5715739131        1.3342410765        0.0715507678
 C          4.7105937549        1.3150593806       -0.7096582987
 C          4.7053663106        1.9934759836       -1.9175096055
 C          3.5680507197        2.6789613244       -2.3181078743
 C          2.4355029301        2.6920117938       -1.5184358644
 C          2.4312097392        2.0140494738       -0.3086484581
 H          1.5564767967        1.9738888429        0.3224447806
 H          1.5485237897        3.2203665236       -1.8312386597
 H          3.5617584028        3.2053930219       -3.2597807546
 H          5.5835517208        1.9847844352       -2.5428218867
 H          5.5735247293        0.7761654813       -0.3555962413
 H          4.3543717401       -1.6538406790        1.8227485486
 H          2.9235068014       -3.4711558087        2.2654052364
 H          0.8439121058       -4.6652630800        1.6809552424
 H         -0.6911635803       -3.7262528898       -0.0100693164
 C         -0.4467511317       -1.4811433791       -1.4287537029
 H         -0.7677694481       -2.3171143311       -2.0658462639
 C          0.1213456368       -0.3844650796       -2.3039422138
 C          1.1209365003       -0.7278626538       -3.3660765793
 C         -0.2685288739       -0.3166944457       -3.7483151263
 H         -0.4155127195        0.6543547954       -4.1964228921
 H         -0.9425128160       -1.0747245203       -4.1205211875
 H          1.9316324370       -0.0391600031       -3.5498355709
 H          1.3903315022       -1.7671139698       -3.4783792016
 H          0.2447101262        0.5547701100       -1.7799988350
 O         -0.6427565608        0.8270927042        0.3466402188
