  62
        -98.94164463
 C          1.6932968466        0.9514051859        0.2125515584
 C          1.8805815388       -0.4463950743        0.0417732253
 C          3.1473268572       -0.8684060875       -0.5683157300
 C          4.0318346655        0.0688840139       -0.9538041235
 C          5.3822791204       -0.2137295264       -1.5442511597
 C          6.4589212786       -0.2967211987       -0.4532937806
 C          6.0828398734       -1.2061152439        0.7165361668
 H          6.9292787245       -1.2146758276        1.4067471850
 H          5.2372109421       -0.7672268964        1.2509645973
 C          5.7354694895       -2.6464884262        0.3149469632
 H          6.1195420218       -2.8551653344       -0.6842067469
 H          6.2350965604       -3.3314332769        1.0033340842
 C          4.2422891572       -2.9764025210        0.3635708294
 H          3.8337017139       -2.6791155893        1.3325868519
 H          4.1317778818       -4.0608021074        0.2803651567
 C          3.3814252663       -2.3433263395       -0.7371130633
 H          3.8208402530       -2.5536919825       -1.7143117939
 H          2.3926908093       -2.8092623484       -0.6961512142
 H          7.3856452449       -0.6504159591       -0.9088993409
 H          6.6343714175        0.7084319644       -0.0628658978
 H          5.3412788736       -1.1479343209       -2.1009342778
 H          5.6342729798        0.5969687595       -2.2299772530
 O          3.8077122940        1.3971188869       -0.8039118296
 C          2.6447608957        1.8769731044       -0.2165070239
 O          2.6054719115        3.1212574934       -0.1487592578
 H         -1.9189433332        0.1401627549        0.2781365520
 C         -1.7851692281        1.0293314174       -0.3183712636
 C         -0.6352523990        1.7896341397       -0.1641026245
 C         -0.4656512744        2.9196447355       -0.9572644760
 C         -1.4344167877        3.2760096702       -1.8771457572
 C         -2.5927052732        2.5300497431       -2.0099132591
 C         -2.7696820093        1.3970270739       -1.2247885968
 N         -3.9221886733        0.6106752378       -1.3478596144
 S         -4.5951660931       -0.1367834067       -0.0111526258
 O         -5.9694146060       -0.3820614361       -0.3937679852
 O         -4.3999324051        0.6415705433        1.1894969437
 C         -3.7422936361       -1.6938253704        0.1063717868
 C         -3.7064923799       -2.5046291391       -1.0104965942
 C         -3.0595427453       -3.7267099330       -0.9287584979
 C         -2.4642812231       -4.1158691229        0.2616642640
 C         -2.5129593583       -3.2925675341        1.3753468978
 C         -3.1590199244       -2.0691633352        1.2996822628
 H         -3.2151039886       -1.3962748857        2.1413516399
 H         -2.0456115123       -3.5947071718        2.2988315339
 H         -1.9567572615       -5.0656235116        0.3227648264
 H         -3.0179507637       -4.3708379578       -1.7924517353
 H         -4.1824650844       -2.1688711985       -1.9167600950
 H         -4.6235092867        0.9712462762       -1.9777404384
 H         -3.3535161042        2.8197047926       -2.7189028990
 H         -1.2920662578        4.1529941723       -2.4907049467
 H          0.4349012009        3.5048786064       -0.8534010592
 C          0.3910362878        1.3808105788        0.8655164790
 H          0.0103993916        0.4777642569        1.3622368600
 C          0.5528184922        2.4658274178        1.9125666274
 C         -0.5713839600        2.7041055680        2.8745410469
 C          0.7053495806        2.0809275703        3.3519181951
 H          1.3640825973        2.6673729529        3.9748064786
 H          0.6997536431        1.0277314551        3.5925562336
 H         -0.7894084631        3.7192485995        3.1692450982
 H         -1.4477871612        2.0784090367        2.7856792117
 H          1.1086694675        3.3260854655        1.5638933938
 O          1.0252678613       -1.3024317984        0.3923117571
