  62
        -98.94472363
 C          2.0187560684        1.3696516214        0.3034217907
 C          2.6503663179        0.7573512999       -0.8061483133
 C          3.8009322990       -0.1024257032       -0.4913259255
 C          4.1850358531       -0.2501522460        0.7896725678
 C          5.3004806279       -1.1406327774        1.2535609130
 C          4.7816007809       -2.5433202568        1.6001868483
 C          3.8901815841       -3.1570936540        0.5201386396
 H          3.6073219259       -4.1559008822        0.8601289663
 H          2.9695126624       -2.5737732903        0.4406181369
 C          4.5459019966       -3.2551148952       -0.8644229689
 H          4.3359547828       -4.2424017149       -1.2812978507
 H          5.6287421063       -3.1676520663       -0.7681604637
 C          4.0424288572       -2.2270984267       -1.8796132821
 H          4.4031468791       -2.5221924383       -2.8685411449
 H          2.9496738523       -2.2474725676       -1.9118853582
 C          4.4908024620       -0.7794853898       -1.6417101725
 H          5.5750413356       -0.7453103832       -1.5178583160
 H          4.2266362247       -0.2007309650       -2.5315905197
 H          4.2038856356       -2.4804129085        2.5254371985
 H          5.6388140416       -3.1947086078        1.7793324864
 H          6.0566280987       -1.2039130447        0.4736885553
 H          5.7469027460       -0.6977547341        2.1454565667
 O          3.5569194775        0.3603171280        1.8272989437
 C          2.4508126179        1.1676270732        1.6133271723
 O          1.9442415285        1.6344782061        2.6544490931
 H         -0.0594217734       -0.1540192455        0.7718913879
 C         -0.6068916156        0.2193991540       -0.0854714376
 C         -0.2890469637        1.4733090440       -0.5942352248
 C         -1.0123219561        1.9482374508       -1.6797853313
 C         -1.9993164275        1.1691045029       -2.2600022429
 C         -2.2937979262       -0.0884024717       -1.7678875956
 C         -1.5921058475       -0.5635306366       -0.6663230270
 N         -1.8965298905       -1.8314885037       -0.1436614411
 S         -3.5089413292       -2.2480593500        0.0214297216
 O         -3.5441406576       -3.1940789762        1.1147546342
 O         -4.0179697372       -2.7269176664       -1.2395578660
 C         -4.3452631215       -0.7373715845        0.4717414477
 C         -3.9393655590       -0.0837410337        1.6184229111
 C         -4.5591909777        1.1049786781        1.9672999248
 C         -5.5702444038        1.6168635286        1.1681802930
 C         -5.9706952671        0.9455807560        0.0235918877
 C         -5.3520940537       -0.2424330897       -0.3317560424
 H         -5.6287657542       -0.7949837481       -1.2148605348
 H         -6.7585779399        1.3447776142       -0.5944484719
 H         -6.0481395836        2.5442255555        1.4416978519
 H         -4.2478616676        1.6278699044        2.8574844448
 H         -3.1530101689       -0.5083358797        2.2222954289
 H         -1.3660816829       -2.0780035926        0.6784426729
 H         -3.0441978350       -0.7146003138       -2.2224604128
 H         -2.5438162365        1.5454240818       -3.1123048294
 H         -0.7959811767        2.9243072074       -2.0809929711
 C          0.8070023272        2.2581162749        0.0860526351
 H          0.4523485565        2.5384962524        1.0887672639
 C          1.2057202401        3.5155771207       -0.6575913671
 C          0.4495459391        4.7912108228       -0.4430254263
 C          1.8333999820        4.6381567672        0.1108137688
 H          2.6397278937        5.1901138788       -0.3483794799
 H          1.9493644706        4.5044671270        1.1768335182
 H          0.3070603873        5.4541057414       -1.2830382949
 H         -0.3771947793        4.7720814451        0.2506464515
 H          1.5955004799        3.3076839000       -1.6472583383
 O          2.2737408922        0.9160978908       -1.9958462542
