  62
        -98.94413008
 C          1.7138918952        1.4147033630        0.3790650390
 C          1.7939187428        0.1919351328        1.0968517963
 C          3.0386260141       -0.5736535162        0.9548998803
 C          4.0365442862       -0.0659732910        0.2093809074
 C          5.3577568126       -0.7356780519       -0.0326515333
 C          5.3273566051       -1.5922437283       -1.3057270721
 C          4.1238817921       -2.5309576746       -1.3871795309
 H          3.2136616493       -1.9342638965       -1.4826949582
 H          4.2257892103       -3.1110950851       -2.3068024682
 C          3.9815665641       -3.4851839100       -0.1931454319
 H          4.9280783035       -3.5512094468        0.3444403642
 H          3.7532311348       -4.4842669772       -0.5700239127
 C          2.8649544162       -3.1117721778        0.7837935664
 H          1.9435009013       -2.9339934870        0.2239437562
 H          2.6930754087       -3.9650495010        1.4454472395
 C          3.1336359761       -1.8904261116        1.6731187895
 H          2.3644182376       -1.8631931577        2.4508404402
 H          4.1055129483       -1.9957182005        2.1598533387
 H          6.2500856921       -2.1735917809       -1.3522997603
 H          5.3016815031       -0.9258599657       -2.1709983020
 H          6.1183613249        0.0389681610       -0.1449423177
 H          5.6079001223       -1.3529540439        0.8281237201
 O          3.9339401113        1.1140355946       -0.4486069383
 C          2.7668576133        1.8665380758       -0.4173276970
 O          2.8218319610        2.8869729120       -1.1311391262
 H         -2.1276850678        1.3242860599        0.7871649043
 C         -1.8347681996        1.4055500419       -0.2477915030
 C         -0.5603660388        1.8421564083       -0.5770671475
 C         -0.2169918628        1.9603306432       -1.9196841094
 C         -1.1325831945        1.6368309786       -2.9040992678
 C         -2.3978435060        1.1842589202       -2.5721838604
 C         -2.7541309072        1.0709786266       -1.2331916566
 N         -4.0406361593        0.6478162345       -0.8727105604
 S         -4.3168044696       -0.3256644816        0.4580967536
 O         -5.6833975657       -0.7680453385        0.2887642615
 O         -4.0307620975        0.4001705382        1.6691285923
 C         -3.2130257938       -1.7125032589        0.2693917018
 C         -2.0033695933       -1.7397790986        0.9311481858
 C         -1.1565347932       -2.8188926816        0.7329645735
 C         -1.5261500937       -3.8447071857       -0.1215229739
 C         -2.7480082807       -3.8045251901       -0.7777731401
 C         -3.5991226526       -2.7298108446       -0.5834725944
 H         -4.5635526247       -2.6691538447       -1.0613781099
 H         -3.0371167009       -4.6063596718       -1.4380279891
 H         -0.8608798201       -4.6804003061       -0.2728386541
 H         -0.2100097834       -2.8311721619        1.2494704733
 H         -1.7186745973       -0.9352382897        1.5889461462
 H         -4.6306377973        0.3839104937       -1.6479111406
 H         -3.1085664208        0.9291774688       -3.3433508903
 H         -0.8561879922        1.7328034448       -3.9433139690
 H          0.7703633937        2.3096870606       -2.1811621222
 C          0.4164676404        2.1909348926        0.5210872352
 H         -0.0224602806        1.8497694997        1.4693132822
 C          0.5958332876        3.6943772327        0.5994358857
 C         -0.4779889238        4.5175125273        1.2426352961
 C          0.8418634888        4.3367114629        1.9298034520
 H          1.5201618075        5.1751969901        1.9785951625
 H          0.8806643296        3.6935295442        2.7971980787
 H         -1.3357255681        3.9986008720        1.6446895888
 H         -0.7090493056        5.4828647531        0.8191793507
 H          1.1070431272        4.1132283746       -0.2572075356
 O          0.8641048407       -0.2350622973        1.8322575339
