  62
        -98.94120218
 C          2.3508741217       -1.1055253673        0.4051066277
 C          3.6841036785       -1.0739718722       -0.0732722509
 C          4.5256197115        0.0178080574        0.4320820250
 C          3.9978873924        0.9112691708        1.2888130435
 C          4.7229783861        2.1071873670        1.8331728448
 C          4.5128680878        3.3383485710        0.9405690454
 C          4.7627611427        3.0755511189       -0.5445858020
 H          4.0052859484        2.3809237705       -0.9159128572
 H          4.6140178434        4.0208968485       -1.0710741893
 C          6.1590617302        2.5246525808       -0.8664336087
 H          6.5557985926        3.0612338473       -1.7308141798
 H          6.8333153635        2.7134491092       -0.0303364512
 C          6.1882810898        1.0354313006       -1.2148310262
 H          7.1712368830        0.8032381986       -1.6331633330
 H          5.4457068488        0.8262635186       -1.9890914465
 C          5.9497605943        0.0723626685       -0.0450880150
 H          6.1878467356       -0.9370888154       -0.3928067285
 H          6.6225414915        0.3200665013        0.7782903157
 H          3.4814540369        3.6794767610        1.0576328894
 H          5.1754122137        4.1333836095        1.2875663187
 H          4.3330586822        2.3216677396        2.8295572744
 H          5.7840869455        1.8780681288        1.9097563297
 O          2.7143635842        0.8497979358        1.7254772574
 C          1.8553846615       -0.1507301663        1.2931173637
 O          0.7089529062       -0.0801273099        1.7762987517
 H         -1.2118852473       -1.7462704026        0.5347947135
 C         -0.9489087087       -1.3810412637       -0.4452037778
 C          0.3395746553       -1.5552399313       -0.9221506597
 C          0.6587314675       -1.0499211905       -2.1801904800
 C         -0.2892907622       -0.3882241271       -2.9364845961
 C         -1.5754727721       -0.2124093257       -2.4550438276
 C         -1.9012460424       -0.7061124867       -1.1998246871
 N         -3.2085506557       -0.5462725447       -0.6988944614
 S         -3.9307334003        0.9704419534       -0.8794661427
 O         -4.4115196480        1.0870272135       -2.2341396893
 O         -3.0342872839        2.0162681055       -0.4384485981
 C         -5.3097732371        0.8109379542        0.2373734201
 C         -6.5027834132        0.3008886711       -0.2377822234
 C         -7.5621881469        0.1459537361        0.6421363274
 C         -7.4111064407        0.4999143479        1.9745265718
 C         -6.2073945025        1.0110749349        2.4366396921
 C         -5.1434682330        1.1678089978        1.5622466951
 H         -4.1923086122        1.5681209044        1.8770519190
 H         -6.0927817917        1.2874877206        3.4724879134
 H         -8.2367086890        0.3792910971        2.6579924281
 H         -8.5001108503       -0.2493013812        0.2870221955
 H         -6.5742511042        0.0468755478       -1.2823392582
 H         -3.2681397316       -0.8408482447        0.2671513006
 H         -2.3210306771        0.3154271110       -3.0273093961
 H         -0.0270364393        0.0001586129       -3.9094490713
 H          1.6676227310       -1.1722088530       -2.5503697673
 C          1.4284873823       -2.2016323410       -0.1025902228
 H          2.0461430749       -2.8127819712       -0.7748740788
 C          0.9239790189       -3.0756546263        1.0254232119
 C          0.3268762805       -4.4138892476        0.7111667092
 C          1.6708814148       -4.3283618736        1.3679991893
 H          1.7569917981       -4.6073052309        2.4074807762
 H          2.5454532738       -4.5639473844        0.7796642724
 H         -0.5110203819       -4.7567877237        1.2986669653
 H          0.2870227020       -4.7080631038       -0.3266137983
 H          0.5053124465       -2.5096592346        1.8491318496
 O          4.1479461009       -1.9207727463       -0.8828780437
