  62
        -98.93698210
 C         -0.8858489020       -1.6736298995       -0.7732469769
 C         -2.0542017237       -2.0411723464       -0.0606600142
 C         -3.1998888119       -1.1181879635       -0.1287340435
 C         -3.0767579005        0.0147759055       -0.8414595289
 C         -4.0826087875        1.1233989009       -0.9870896910
 C         -3.8555852514        2.2057807491        0.0820003931
 C         -4.5875103475        1.9737303535        1.4026751275
 H         -4.2552793966        2.7464359733        2.0995144722
 H         -5.6602425384        2.1101095502        1.2501701414
 C         -4.3543572172        0.6032022258        2.0426876861
 H         -3.2977229075        0.3381950970        1.9711176404
 H         -4.5967908654        0.6816799836        3.1043118845
 C         -5.2122972186       -0.5068018153        1.4180552289
 H         -5.7395594078       -1.0461145746        2.2079948594
 H         -5.9789352767       -0.0558200395        0.7882913776
 C         -4.4337166633       -1.5562552747        0.6131203369
 H         -5.1141806534       -2.0356914676       -0.0991932307
 H         -4.0847183261       -2.3450955868        1.2870828264
 H         -2.7807950208        2.2699334031        0.2650692441
 H         -4.1825135683        3.1670827308       -0.3189475020
 H         -5.0953150787        0.7332495041       -0.9462239845
 H         -3.9157016442        1.5645390074       -1.9716464059
 O         -1.9389343091        0.3311388201       -1.5159038524
 C         -0.8227028114       -0.4942652972       -1.5167674115
 O          0.1147799679       -0.0612076861       -2.2087599394
 O         -2.1372283937       -3.1079864098        0.6076367905
 C          0.2943363052       -2.6229759326       -0.6748128226
 C          1.2002510192       -2.2379800710        0.4671710677
 C          1.6178730179       -3.1887467874        1.3916934406
 C          2.4501037265       -2.8344347153        2.4384196656
 C          2.8929638961       -1.5311607878        2.5722344449
 C          2.4777691568       -0.5712551574        1.6559033670
 C          1.6264792156       -0.9258460800        0.6194176900
 H          1.3071632470       -0.1742777454       -0.0856612787
 N          2.8901961869        0.7633236281        1.7727426830
 S          3.2600328643        1.6355822577        0.3890267213
 O          3.8162986046        0.7832813993       -0.6346755069
 O          4.1290264682        2.6945923107        0.8638108725
 C          1.7257697467        2.3700367555       -0.1259040572
 C          1.4372385767        2.4706852998       -1.4707990640
 C          0.2736603849        3.1168362274       -1.8579761110
 C         -0.5720397224        3.6494790350       -0.8996191608
 C         -0.2666409001        3.5397149963        0.4494395799
 C          0.8940759921        2.8959700055        0.8436081596
 H          1.1642390040        2.7903449768        1.8814410697
 H         -0.9292507950        3.9544580804        1.1928807890
 H         -1.4775833309        4.1497548667       -1.2055136910
 H          0.0297615765        3.1877062963       -2.9055377483
 H          2.1090146443        2.0256959993       -2.1867299543
 H          3.5490868027        0.9446449869        2.5162781899
 H          3.5514176685       -1.2539088749        3.3813397403
 H          2.7645245886       -3.5808594561        3.1519294841
 H          1.2744431806       -4.2079524931        1.2917953805
 H         -0.1501131146       -3.5997382091       -0.4238015833
 C          1.0477678302       -2.8008338642       -1.9848399146
 C          2.3628895686       -2.1565292822       -2.2911095957
 C          2.2976908410       -3.6299684001       -2.0297796149
 H          2.4396278500       -4.3097095713       -2.8564444608
 H          2.6927011116       -3.9866922927       -1.0903146383
 H          2.5223398695       -1.8154095133       -3.3031157219
 H          2.8177665583       -1.5119440320       -1.5544808129
 H          0.3657658555       -2.9062420485       -2.8234557452
