  62
        -98.93629418
 C         -1.7868334153       -0.9405064437        0.7089802531
 C         -2.1136056419        0.2653669958        0.0450052395
 C         -3.5487312837        0.5721457588       -0.0556165361
 C         -4.4504273476       -0.2643938792        0.4888531455
 C         -5.9445381658       -0.0785363709        0.5264897468
 C         -6.6688583275       -0.1004995518       -0.8333364837
 C         -6.8857076947        1.2840236645       -1.4564780798
 H         -6.8805179229        2.0316181783       -0.6623150797
 H         -7.8792334179        1.3139425803       -1.9083944151
 C         -5.8881169534        1.6895440553       -2.5457606972
 H         -5.9974228814        2.7626710027       -2.7170591762
 H         -6.1490603944        1.1802854959       -3.4763178949
 C         -4.4191800939        1.3827386858       -2.2532198107
 H         -3.8080792211        1.8925789203       -3.0009162779
 H         -4.2342561689        0.3135518909       -2.3817327374
 C         -3.9452528968        1.7866120396       -0.8434027262
 H         -4.7198520059        2.3476497600       -0.3224616351
 H         -3.0544774085        2.4145949137       -0.9151584702
 H         -7.6467983837       -0.5533728721       -0.6628367487
 H         -6.1285252365       -0.7486598031       -1.5226446890
 H         -6.3227217589       -0.8954594514        1.1443880058
 H         -6.1675933525        0.8593246303        1.0402683728
 O         -4.0897191628       -1.4066566578        1.1360419055
 C         -2.7607649590       -1.7781188170        1.2519809029
 O         -2.5771159051       -2.8523373829        1.8594496861
 H          2.0817245751       -0.2131723973        0.1482191216
 C          1.6753698601        0.1757529276        1.0664625785
 C          0.4598911499       -0.2864176525        1.5467232315
 C         -0.0299574582        0.2398706308        2.7396980082
 C          0.6680738100        1.2179453618        3.4197537731
 C          1.8706671802        1.6921491495        2.9255689926
 C          2.3752727975        1.1667001951        1.7426739309
 N          3.6164503396        1.5927807458        1.2512510269
 S          3.9211656882        1.7173000672       -0.3883679255
 O          5.1006039552        2.5556485966       -0.4592602147
 O          2.7735647821        2.1792539565       -1.1313009504
 C          4.3686018306        0.0688983567       -0.8907504791
 C          5.2204073909       -0.6654125825       -0.0893005917
 C          5.6054345354       -1.9298906640       -0.5049802251
 C          5.1433658009       -2.4329237762       -1.7117551166
 C          4.2920513683       -1.6811682203       -2.5071560209
 C          3.8989699043       -0.4172000814       -2.0945458814
 H          3.2277519971        0.1966174614       -2.6746943336
 H          3.9325351966       -2.0728711891       -3.4457653390
 H          5.4449844424       -3.4169799051       -2.0342171865
 H          6.2654594588       -2.5187752287        0.1112189902
 H          5.5623628831       -0.2409381749        0.8395508887
 H          4.0401715277        2.3514193771        1.7649710965
 H          2.4143719378        2.4623962950        3.4513116900
 H          0.2716210012        1.6202921571        4.3399772351
 H         -0.9734171190       -0.1264641935        3.1219975636
 C         -0.3352878996       -1.3621301582        0.8483432429
 H         -0.3422367999       -2.2518403100        1.4954383862
 C          0.2291722446       -1.7513317897       -0.5020743202
 C          1.3003863037       -2.7951602517       -0.5928043287
 C         -0.0912132684       -3.1074169869       -1.0525425827
 H         -0.2776816238       -3.2023369663       -2.1117027243
 H         -0.7024051724       -3.7561517305       -0.4417611374
 H          1.6394289377       -3.2405802825        0.3300718934
 H          2.0741346021       -2.6781214122       -1.3361999801
 H          0.2567543053       -0.9203598499       -1.1987015030
 O         -1.2552010101        1.0518962118       -0.4337258615
