  62
        -98.94385308
 C         -1.3064556834       -1.4180104008        0.6225229656
 C         -2.0957331536       -1.0091832914       -0.4812166223
 C         -3.1108435468        0.0172531134       -0.1992573361
 C         -3.2236761116        0.5183726309        1.0430651307
 C         -4.1805151121        1.5996946613        1.4515375634
 C         -3.5354978690        2.9878038836        1.3390059551
 C         -2.8391022498        3.2476663773        0.0024192960
 H         -2.4717008743        4.2765831828        0.0258009338
 H         -1.9558781603        2.6080355511       -0.0785370951
 C         -3.7327342114        3.0545146835       -1.2308016276
 H         -3.5541803341        3.8828846541       -1.9197974419
 H         -4.7826312106        3.0967772263       -0.9370942309
 C         -3.4742849280        1.7648989184       -2.0123920328
 H         -3.9774153754        1.8475121495       -2.9797559395
 H         -2.4025084657        1.6673436582       -2.2067804833
 C         -3.9643130535        0.4715127259       -1.3489873938
 H         -5.0051412488        0.5865312398       -1.0395272800
 H         -3.9118263870       -0.3254803476       -2.0965387380
 H         -2.7910977018        3.0914506251        2.1320979074
 H         -4.3100754116        3.7407454939        1.4986747173
 H         -5.0680490728        1.5482685295        0.8238316347
 H         -4.4700664184        1.4284238895        2.4900384861
 O         -2.4351175835        0.1189815699        2.0731273878
 C         -1.4346680154       -0.8194856391        1.8775785637
 O         -0.7311676368       -1.0328583415        2.8865121390
 H          0.6029369266        0.0517732239       -0.1053705901
 C          1.0186392645       -0.6443572355       -0.8167809140
 C          0.6953281346       -1.9907193589       -0.7146911426
 C          1.2024143317       -2.8647703705       -1.6665836318
 C          2.0023882819       -2.3887253157       -2.6921814979
 C          2.3254868463       -1.0472186390       -2.7850514991
 C          1.8184916932       -0.1637588217       -1.8381073334
 N          2.0967594758        1.2090164064       -1.8941481784
 S          2.1483448825        2.1200265466       -0.4970733177
 O          0.8213648070        2.3257849037        0.0272165046
 O          2.8655959764        3.3164602378       -0.8836842856
 C          3.1454383971        1.1678158535        0.6359900613
 C          2.5902024516        0.5886965410        1.7582139922
 C          3.3950853985       -0.1822548545        2.5828909017
 C          4.7348583831       -0.3577207485        2.2754011664
 C          5.2820025845        0.2402497981        1.1498448855
 C          4.4814297353        1.0075443548        0.3206034582
 H          4.8720158199        1.4971698833       -0.5565447357
 H          6.3259698850        0.1074849557        0.9162937746
 H          5.3547655026       -0.9615199958        2.9190753276
 H          2.9602802445       -0.6440741122        3.4552875686
 H          1.5436835507        0.7356502233        1.9781307454
 H          2.7889371004        1.4897668119       -2.5717226842
 H          2.9466663644       -0.6819030991       -3.5881397270
 H          2.3828054963       -3.0763339686       -3.4322616374
 H          0.9564755838       -3.9128732383       -1.6215297914
 C         -0.1620341292       -2.4038060291        0.4584628207
 H          0.4505765846       -2.2697469918        1.3666332111
 C         -0.5733510647       -3.8687288673        0.4326329731
 C         -1.9054543448       -4.3126764086        0.9576902346
 C         -1.6137157701       -4.3932870460       -0.5091459763
 H         -1.4626539717       -5.3693309549       -0.9469266417
 H         -2.0876044872       -3.6833391242       -1.1676643315
 H         -1.9518903055       -5.2282908356        1.5283668887
 H         -2.5885270785       -3.5487165095        1.3009596052
 H          0.2627196851       -4.5273917147        0.6464836867
 O         -1.9679898066       -1.4658784491       -1.6463500287
