  62
        -98.94262000
 C          2.1395580351        0.8950321654        0.1575502349
 C          2.6685777841        0.0253162296        1.1395308466
 C          3.0093874779       -1.3285901703        0.6837117068
 C          2.7642010806       -1.6723645540       -0.5942078675
 C          3.0899242693       -3.0063581240       -1.1996289961
 C          4.4927498495       -3.0082764797       -1.8229186828
 C          5.5788298008       -2.4593958136       -0.8976621972
 H          6.5292225546       -2.5387157355       -1.4295681492
 H          5.3943971719       -1.3967180141       -0.7245622147
 C          5.6860057908       -3.1815684001        0.4526443760
 H          5.1902190380       -4.1511214873        0.3943159262
 H          6.7402386891       -3.3684043278        0.6669550399
 C          5.1234461927       -2.3954660829        1.6382455727
 H          5.5479217397       -1.3884820749        1.6443446023
 H          5.4438107972       -2.8918784516        2.5579961846
 C          3.5953311105       -2.2740546949        1.6949290545
 H          3.1429352079       -3.2638219117        1.6032500058
 H          3.3305030340       -1.8648030419        2.6744733610
 H          4.7396316849       -4.0314225778       -2.1119252994
 H          4.4695493919       -2.3954742535       -2.7269731961
 H          3.0203247728       -3.7741051395       -0.4312569198
 H          2.3526945180       -3.2170677447       -1.9765594331
 O          2.2254853210       -0.8188830770       -1.5026257599
 C          1.8979811493        0.4825643812       -1.1535224640
 O          1.4112977854        1.1575520174       -2.0805310032
 H         -0.1914692692        0.5977555264        1.2078631797
 C         -0.6002964670        1.4707347737        0.7114621914
 C          0.2584407310        2.4861172312        0.3084957552
 C         -0.2876260633        3.5957837127       -0.3224314291
 C         -1.6485255421        3.6656948731       -0.5697981501
 C         -2.4928323946        2.6369768536       -0.1948616826
 C         -1.9587010318        1.5333275226        0.4542104087
 N         -2.8150973417        0.4620983901        0.8193440168
 S         -3.2147725105       -0.5687253901       -0.4651899811
 O         -2.3207468706       -1.7100549647       -0.4508977887
 O         -3.2811901481        0.1951065346       -1.6837856192
 C         -4.8520051017       -1.0876748444        0.0119489987
 C         -5.0225123933       -2.2755053797        0.6953402602
 C         -6.2986940922       -2.6435181639        1.0922193627
 C         -7.3758724623       -1.8197249991        0.8036257984
 C         -7.1884194731       -0.6290801719        0.1173310847
 C         -5.9151568928       -0.2563535426       -0.2819783909
 H         -5.7218283533        0.6535797633       -0.8256161992
 H         -8.0283914597        0.0082380610       -0.1074490068
 H         -8.3677854183       -2.1085212781        1.1134912046
 H         -6.4470282553       -3.5696817461        1.6238816387
 H         -4.1578495990       -2.8893877767        0.8897264577
 H         -2.3916006904       -0.1155955466        1.5348496390
 H         -3.5480919977        2.6674938329       -0.4096712161
 H         -2.0537616734        4.5303889450       -1.0729834432
 H          0.3558307484        4.4005063869       -0.6387424815
 C          1.7357972352        2.3031990045        0.5578613558
 H          1.9162190117        2.3647194481        1.6416744193
 C          2.6015343000        3.3291321127       -0.1418106412
 C          2.8753051068        4.6541764363        0.5029825999
 C          3.9617017819        3.6264358895        0.4123486315
 H          4.7746541288        3.7911125026       -0.2787334478
 H          4.2532246314        3.1066746041        1.3134147153
 H          2.4337783573        4.8397299785        1.4702887417
 H          2.9458594410        5.5283391361       -0.1263951258
 H          2.4963345698        3.2923579754       -1.2204627893
 O          2.8347222499        0.3621160898        2.3438645641
