  62
        -98.93476306
 C         -2.3039363358        0.2641382253       -0.2042127614
 C         -3.4872966712        0.6225559367       -0.8888152901
 C         -4.7078292203       -0.1221876193       -0.5335763394
 C         -4.6419623709       -1.0865525685        0.4036523745
 C         -5.6987339954       -2.0315537194        0.9371302041
 C         -7.1794250821       -1.7874175614        0.6577864337
 C         -7.7623262614       -0.5482132819        1.3363914654
 H         -7.7992926295       -0.7276465167        2.4138373851
 H         -8.7883202332       -0.4172229966        0.9857281673
 C         -6.9913730016        0.7504234499        1.1132179047
 H         -5.9926712748        0.6638153661        1.5462191138
 H         -7.5094977007        1.5446565110        1.6575815047
 C         -6.8636671347        1.1932372750       -0.3429228371
 H         -6.4355779447        2.1993270701       -0.3441902785
 H         -7.8542051752        1.2509841153       -0.7982994214
 C         -5.9678288753        0.3091888776       -1.2276385937
 H         -5.6530608842        0.9041643516       -2.0899661171
 H         -6.5124887243       -0.5520623711       -1.6068035349
 H         -7.7158783883       -2.6579020868        1.0450700367
 H         -7.3607895552       -1.7572726070       -0.4124543592
 H         -5.5405949054       -2.0724448682        2.0194826837
 H         -5.4319707753       -3.0213497459        0.5505089656
 O         -3.4703314154       -1.4037781695        1.0306958220
 C         -2.2832164634       -0.7459737833        0.7550219368
 O         -1.3084881175       -1.1479053776        1.4181100529
 O         -3.5234582378        1.5208761945       -1.7728221063
 C         -1.0159489549        0.9998141464       -0.5228475832
 C          0.0381279625        0.0278693380       -0.9916053902
 C         -0.2690911260       -0.8412364763       -2.0364071804
 C          0.6654680685       -1.7447177521       -2.5019682214
 C          1.9322616888       -1.7927715311       -1.9463203503
 C          2.2489559444       -0.9314079928       -0.9033999755
 C          1.3048023019       -0.0275598614       -0.4342083402
 H          1.5800179063        0.6276937105        0.3748180496
 N          3.5161017713       -0.9746565660       -0.3008014011
 S          4.1963912607        0.4606541524        0.2675917891
 O          3.6797596878        0.7418376833        1.5832457857
 O          4.0409101386        1.5069341642       -0.7179142308
 C          5.9086697794       -0.0244991730        0.3875469531
 C          6.7817996009        0.3044247260       -0.6321384745
 C          8.1038247893       -0.1018781772       -0.5399831346
 C          8.5272937576       -0.8287590347        0.5624350669
 C          7.6394674019       -1.1509020095        1.5783886583
 C          6.3167095235       -0.7467006328        1.4932649242
 H          5.5933500639       -0.9652708392        2.2616071185
 H          7.9728771331       -1.7135774518        2.4354150095
 H          9.5564780329       -1.1436599332        0.6321918013
 H          8.7971789878        0.1501310443       -1.3261217249
 H          6.4095107428        0.8781274448       -1.4655989578
 H          4.1830248538       -1.5277513281       -0.8212606794
 H          2.6645242587       -2.4970113072       -2.3109643758
 H          0.4100567667       -2.4132572619       -3.3104896930
 H         -1.2567280239       -0.7979828901       -2.4757268560
 H         -1.2595251319        1.6682230019       -1.3627709998
 C         -0.5810522559        1.8438038892        0.6561426963
 C          0.2768502906        3.0532246947        0.4394169255
 C         -1.1607217735        3.2141436141        0.8305379222
 H         -1.3893286572        3.5542486565        1.8294003050
 H         -1.8592125626        3.5555620445        0.0805270464
 H          1.0434024523        3.2762323072        1.1669217990
 H          0.5609486139        3.2881500785       -0.5755236986
 H         -0.4111313329        1.2546963210        1.5513827273
