  62
        -98.94027228
 C         -2.8049627094       -0.9174221182        0.2201608004
 C         -2.4457141718       -0.1694167062       -0.9275600133
 C         -2.7944773888        1.2592663535       -0.9008371672
 C         -3.4874472938        1.7586730504        0.1396434137
 C         -3.9585662112        3.1747440782        0.3818587025
 C         -3.1021510259        4.3485442979       -0.0997811899
 C         -1.6525839074        4.3548002974        0.3825301705
 H         -1.6367915763        4.4170115668        1.4734960047
 H         -1.1788767433        5.2586476412       -0.0075047057
 C         -0.8083363531        3.1485709702       -0.0331069578
 H         -1.0893197991        2.2764926118        0.5636412144
 H          0.2392078150        3.3612847786        0.2048448491
 C         -0.8777809660        2.7720341844       -1.5148858085
 H         -0.0657504488        2.0620890923       -1.6978848984
 H         -0.6870688201        3.6571059674       -2.1245754609
 C         -2.1968978808        2.1132690445       -1.9778392404
 H         -1.9682886745        1.4509651376       -2.8169342218
 H         -2.9161619672        2.8532344520       -2.3228797973
 H         -3.5805364210        5.2547997646        0.2812062717
 H         -3.1194834425        4.4120405162       -1.1840388101
 H         -4.0970526224        3.2527224376        1.4638110225
 H         -4.9503332205        3.2676019263       -0.0733406669
 O         -3.9236852377        0.9681293498        1.1618071301
 C         -3.5373830276       -0.3606347431        1.2644495547
 O         -3.9013552820       -0.9229577837        2.3176282509
 O         -1.8410695121       -0.6616363216       -1.9142029213
 C         -2.2780597238       -2.3318716757        0.3795937303
 C         -0.7736577065       -2.3002645385        0.2292503831
 C         -0.0542907980       -3.2439539711       -0.4914281388
 C          1.3163144780       -3.1158463819       -0.6423682263
 C          1.9978089840       -2.0484272485       -0.0872438821
 C          1.2898451156       -1.1058317321        0.6465001395
 C         -0.0766305543       -1.2510462081        0.8161360969
 H         -0.6212599312       -0.5083394385        1.3886821907
 N          1.9677206106       -0.0027417158        1.2049940746
 S          2.7667614768        1.0049572201        0.1155260005
 O          2.7863431134        2.3070297266        0.7467782803
 O          2.1875024670        0.9352985612       -1.2044533036
 C          4.4191234990        0.3423745675        0.0932017303
 C          5.1283807574        0.3225600490        1.2782044251
 C          6.4117984948       -0.1997260560        1.2810501598
 C          6.9613926401       -0.6891952593        0.1052643005
 C          6.2375564261       -0.6591024935       -1.0768839880
 C          4.9526334134       -0.1384471816       -1.0862044765
 H          4.3492218980       -0.0988014548       -1.9792147189
 H          6.6663620430       -1.0397489182       -1.9899380697
 H          7.9599606169       -1.0967683147        0.1102193951
 H          6.9781191010       -0.2244893990        2.1980467173
 H          4.6646553578        0.7170072841        2.1669042114
 H          1.3764797214        0.5587363385        1.8020977501
 H          3.0609902319       -1.9327071081       -0.2220158758
 H          1.8598467825       -3.8529516113       -1.2134754971
 H         -0.5698908662       -4.0709830281       -0.9515443975
 H         -2.5233672595       -2.6402401029        1.4066736151
 C         -2.9591537511       -3.2741982900       -0.5902932372
 C         -3.1495085297       -4.7178527092       -0.2361226164
 C         -4.3254059443       -3.7894951258       -0.2549486688
 H         -5.0494179116       -3.8857830545       -1.0499472345
 H         -4.7518696849       -3.4794582613        0.6881629646
 H         -3.0700690780       -5.4556239329       -1.0202425612
 H         -2.7838941192       -5.0504221649        0.7236148858
 H         -2.7584629108       -3.0184616008       -1.6243630577
