  62
        -98.94065897
 C         -0.2572876862       -1.6988020684       -0.0312898479
 C         -1.2844811289       -1.5836948948        0.9303017568
 C         -2.4681256548       -0.7947981600        0.5419811524
 C         -2.4930564469       -0.2114952048       -0.6701742729
 C         -3.6136853743        0.5642577600       -1.3156534943
 C         -4.3088310115        1.6262030489       -0.4495151718
 C         -5.7394685158        1.2498576548       -0.0591941157
 H         -6.2931088027        2.1647049198        0.1637790961
 H         -6.2214691036        0.7782528536       -0.9180117978
 C         -5.8624396533        0.3312060808        1.1549780364
 H         -5.6058404735        0.8892769618        2.0582810931
 H         -6.9112314408        0.0375404345        1.2422957949
 C         -5.0025024063       -0.9335432973        1.1104904273
 H         -5.4567340379       -1.6690056575        1.7779955077
 H         -5.0084883502       -1.3663065172        0.1108584379
 C         -3.5556583912       -0.7120003705        1.5783046552
 H         -3.4723423879        0.2483290049        2.0965393875
 H         -3.2901067650       -1.4738273833        2.3182619994
 H         -3.7137052318        1.8272708014        0.4403925681
 H         -4.3571488335        2.5518272152       -1.0256834065
 H         -3.1663161947        1.0298297736       -2.1955802703
 H         -4.3539196294       -0.1504643211       -1.6837528942
 O         -1.4494966831       -0.2997527315       -1.5428441103
 C         -0.3120621755       -1.0331660092       -1.2546571061
 O          0.5539128273       -1.0171811306       -2.1481138244
 O         -1.2275061970       -2.1366763602        2.0638380698
 C          0.9517056350       -2.5615123535        0.2748608351
 C          2.2268664634       -1.7664710810        0.1563357326
 C          3.3775480539       -2.2612207190       -0.4448646540
 C          4.5213245991       -1.4851140430       -0.5133825124
 C          4.5414812084       -0.2046765793        0.0069906068
 C          3.3967468349        0.2959771782        0.6187483474
 C          2.2570741362       -0.4872918113        0.6972897113
 H          1.3770933972       -0.0925766527        1.1848215049
 N          3.3874861069        1.5884068109        1.1625294252
 S          1.9928524896        2.4820337262        1.2885629194
 O          2.4639209497        3.8357282545        1.5022022270
 O          1.1439112826        1.9547348633        2.3295752896
 C          1.1336503499        2.4263354994       -0.2751982562
 C         -0.2032936573        2.7698507539       -0.2511335449
 C         -0.9015383271        2.8494393702       -1.4436200500
 C         -0.2584661002        2.5649636848       -2.6376037097
 C          1.0801356260        2.2109488596       -2.6457447311
 C          1.7905360186        2.1534515899       -1.4570789376
 H          2.8330436669        1.8806703502       -1.4530228065
 H          1.5755854863        1.9732844320       -3.5729478329
 H         -0.8048470780        2.6125280836       -3.5664396460
 H         -1.9423366276        3.1291841772       -1.4334459256
 H         -0.6694835104        2.9622569931        0.7026684941
 H          4.1928293058        2.1598651378        0.9555495735
 H          5.4302982970        0.4044031404       -0.0544569190
 H          5.4074272741       -1.8800847837       -0.9863136784
 H          3.3784898482       -3.2538405583       -0.8637322938
 H          0.8368557253       -2.8657868896        1.3264997816
 C          0.9311287079       -3.8020273504       -0.5958941092
 C          1.5011340949       -5.0939352742       -0.0933849616
 C          0.0175486129       -4.9296589080       -0.2230877473
 H         -0.4960913234       -5.4604928842       -1.0105250817
 H         -0.5672616545       -4.8136373758        0.6778936008
 H          2.0053570965       -5.7428593899       -0.7935567249
 H          1.9236310343       -5.1016075272        0.9000445593
 H          1.0340051941       -3.5695839716       -1.6500968522
