  62
        -98.94451960
 C         -1.2956696310       -1.7501600802       -0.6946942705
 C         -2.4942839013       -1.6275017799        0.0552922289
 C         -3.4132100909       -0.5604753398       -0.3491456916
 C         -3.1123965703        0.2067839500       -1.4119542715
 C         -3.9237185098        1.3620003101       -1.9305144020
 C         -3.6288233399        2.6782237002       -1.1972489120
 C         -4.2084963606        2.7752587204        0.2147256877
 H         -4.1350650405        3.8214570404        0.5185988977
 H         -5.2674370206        2.5138236906        0.1929823473
 C         -3.4817363212        1.9112208204        1.2552866681
 H         -2.4959162711        1.6335614802        0.8717068986
 H         -3.3094179015        2.5009502904        2.1592164382
 C         -4.2385865516        0.6504131205        1.6765619879
 H         -5.1563682618        0.9337617707        2.1973216675
 H         -3.6096442920        0.0948491805        2.3772278683
 C         -4.6030592013       -0.2906812995        0.5207329478
 H         -5.4185523209        0.1305581806       -0.0665809726
 H         -4.9295432716       -1.2434067694        0.9451287878
 H         -4.0462426195        3.4905199102       -1.7973346023
 H         -2.5451090199        2.8178354900       -1.1511501015
 H         -3.6584001593        1.4855639800       -2.9827162919
 H         -4.9873415699        1.1320693303       -1.8623817025
 O         -1.9986619300        0.0058105598       -2.1581224510
 C         -1.0266665703       -0.9175671704       -1.7816598605
 O         -0.0179843500       -0.8907136306       -2.5108026500
 O         -2.7724129919       -2.3751640498        1.0318592989
 C         -0.2720742814       -2.7263527903       -0.1408726299
 C          0.4390676882       -2.0818157103        1.0267078403
 C          0.7843596775       -2.8035827803        2.1629801305
 C          1.4100931572       -2.1753920203        3.2261382408
 C          1.6872672874       -0.8208198304        3.1862374008
 C          1.3291049081       -0.0851935804        2.0602778905
 C          0.7319491985       -0.7270240304        0.9865904903
 H          0.4476713089       -0.1491205804        0.1234995301
 N          1.5289561283        1.2955332596        2.0149322605
 S          1.5064173791        2.2220429194        0.6307782704
 O          1.8524783391        3.5444476294        1.1079835104
 O          0.2390624694        2.1062163096       -0.0449970002
 C          2.8531702395        1.6035592391       -0.3609471089
 C          2.6337968099        0.8394916790       -1.4878508790
 C          3.7302085801        0.3751659488       -2.2006190684
 C          5.0148346600        0.6749239986       -1.7783862978
 C          5.2182075696        1.4469264987       -0.6436799978
 C          4.1296344293        1.9153596489        0.0712006716
 H          4.2426621390        2.5345736690        0.9461171916
 H          6.2180425595        1.6838847185       -0.3175176974
 H          5.8605804902        0.3075230184       -2.3378314574
 H          3.5613661804       -0.2228036513       -3.0817361484
 H          1.6297745900        0.6022132592       -1.8048758094
 H          2.0593752081        1.7033356195        2.7678370707
 H          2.1545843271       -0.3293314004        4.0253885809
 H          1.6741125167       -2.7451062103        4.1041285509
 H          0.5363333373       -3.8529283403        2.2230283405
 H         -0.8573787917       -3.5696341502        0.2610040499
 C          0.6882162390       -3.2852077006       -1.1781208495
 C          2.1049866791       -2.8208234609       -1.3058309288
 C          1.8142787187       -4.1882072008       -0.7689792188
 H          2.0345470888       -5.0442064809       -1.3885092787
 H          1.9700229681       -4.3528256407        0.2857670312
 H          2.5108225596       -2.7241266310       -2.3004262487
 H          2.4529501290       -2.0624810909       -0.6208197388
 H          0.1796310394       -3.5318178606       -2.1039666497
