  62
        -98.94142588
 C         -1.5778139198       -0.6007121598        0.9563670097
 C         -2.8187524296       -1.0944444803        0.4852278995
 C         -3.8973319899       -0.1020749806        0.3719859292
 C         -3.6707529903        1.1836899695        0.6932735391
 C         -4.6754730607        2.3026715992        0.6424018088
 C         -4.8414473306        2.9320831790       -0.7476142413
 C         -5.5840363901        2.0694126086       -1.7688406813
 H         -6.5294557301        1.7342268684       -1.3410879315
 H         -5.8214817102        2.7122092085       -2.6189200915
 C         -4.7870946597        0.8584059988       -2.2738972211
 H         -3.7280806598        0.9957316792       -2.0429337609
 H         -4.8710626495        0.7948696987       -3.3611762311
 C         -5.2462843894       -0.4841461513       -1.7052869610
 H         -6.2626692692       -0.6977008316       -2.0438359412
 H         -4.5893509291       -1.2646870311       -2.0972260608
 C         -5.2150695996       -0.5642272511       -0.1736447710
 H         -6.0294400699        0.0225473387        0.2506993888
 H         -5.3474713194       -1.6092289411        0.1170648691
 H         -3.8526664106        3.1861608292       -1.1362792011
 H         -5.3976788009        3.8634809588       -0.6186483615
 H         -5.6417519206        1.9439631289        0.9982275687
 H         -4.3166819610        3.0730861494        1.3282147488
 O         -2.4615996505        1.6215692899        1.1342408493
 C         -1.3918791303        0.7522350702        1.2600598096
 O         -0.3405540405        1.2930673106        1.6567120097
 H          1.9285645602       -0.3257814388        0.3000222503
 C          1.5244073206       -0.9825795090       -0.4547997497
 C          0.3413689207       -1.6624378694       -0.2032854599
 C         -0.1868102288       -2.4821943596       -1.1950140499
 C          0.4698266814       -2.6223718796       -2.4038195197
 C          1.6644427513       -1.9650522892       -2.6411154696
 C          2.1944546008       -1.1346167290       -1.6602226496
 N          3.3859592207       -0.4330700686       -1.8821819494
 S          4.4458033403       -0.1068148282       -0.6320506593
 O          5.7044716904        0.1592880722       -1.2957458591
 O          4.4596391705       -1.1684552280        0.3471930608
 C          3.8405144597        1.4040817417        0.0861345504
 C          3.6246804195        2.4819731916       -0.7489838397
 C          3.1698242991        3.6703386015       -0.2019151299
 C          2.9410201288        3.7605148916        1.1627195700
 C          3.1660156590        2.6705174817        1.9880430202
 C          3.6219228795        1.4796084018        1.4466479804
 H          3.8026086696        0.6057842919        2.0533869405
 H          2.9805320888        2.7403030118        3.0477515001
 H          2.5812849984        4.6845755315        1.5870560699
 H          2.9912811889        4.5214115514       -0.8394948000
 H          3.8150421598        2.3739221015       -1.8039124497
 H          3.8616779809       -0.6493057586       -2.7454670793
 H          2.1814107815       -2.0872827192       -3.5808891895
 H          0.0520023218       -3.2596146398       -3.1687138598
 H         -1.1224498887       -2.9886929799       -1.0167070000
 C         -0.3459895796       -1.4757895594        1.1280965300
 H          0.3367026901       -0.9031962392        1.7707943001
 C         -0.6295146793       -2.8036510995        1.8015166901
 C          0.5234202108       -3.5845781290        2.3544968204
 C         -0.4512493295       -2.9260015692        3.2833428101
 H         -1.1394790594       -3.5487050394        3.8350716501
 H         -0.1270975399       -2.0485132091        3.8241636101
 H          1.5099470807       -3.1541043788        2.2594946305
 H          0.5057481312       -4.6603020891        2.2687801705
 H         -1.4441677290       -3.3554496998        1.3527435700
 O         -3.0442409392       -2.2936348104        0.1749733296
