  62
        -98.94038060
 C         -1.0922931402       -1.4443327200        0.2185221999
 C         -1.3449058698       -0.4841651701       -0.7879095003
 C         -2.3346143793        0.5619598904       -0.4669353304
 C         -2.8738160793        0.6034198809        0.7629247096
 C         -3.9179963088        1.5517319514        1.2850613095
 C         -5.3269795191        0.9577012120        1.1156669097
 C         -5.9894785690        1.2482770321       -0.2302730103
 H         -6.9177026993        0.6733403225       -0.2670131202
 H         -6.2581526886        2.3056972122       -0.2777313705
 C         -5.1468994093        0.9011431815       -1.4601195703
 H         -4.6640714297       -0.0667156287       -1.3130779802
 H         -5.8231462493        0.7980729617       -2.3110518603
 C         -4.0907486188        1.9669107110       -1.7889677406
 H         -4.2923016684        2.8634213512       -1.2035799707
 H         -4.1841110087        2.2563335608       -2.8378698606
 C         -2.6355785190        1.5260932904       -1.5818023306
 H         -2.0061484786        2.4121274001       -1.4523540508
 H         -2.2779876593        1.0251389601       -2.4868525705
 H         -5.9720575989        1.3547882425        1.9020878896
 H         -5.2568861196       -0.1226654680        1.2661387999
 H         -3.7214184587        1.6722788515        2.3525835995
 H         -3.8429096984        2.5203847013        0.8001776593
 O         -2.5482122096       -0.2972684991        1.7298236997
 C         -1.6846214201       -1.3429987095        1.4819856099
 O         -1.5174509204       -2.1099428194        2.4510198500
 O         -0.7912836899       -0.4781179705       -1.9214449203
 C         -0.1646737407       -2.6371491004        0.0353380700
 C          1.2766869295       -2.2311591010        0.2214930899
 C          2.0506799993       -2.7741574512        1.2398776899
 C          3.3621723295       -2.3691104017        1.4237488598
 C          3.9233963698       -1.4047129321        0.6052075996
 C          3.1519192400       -0.8500306220       -0.4073616105
 C          1.8468344498       -1.2732904014       -0.6052496203
 H          1.2528515600       -0.8339660013       -1.3930130204
 N          3.6943346004        0.1860338576       -1.2057552807
 S          3.8631291911        1.6487973877       -0.4080478910
 O          4.2535419415        2.6094366174       -1.4139028311
 O          4.7775127611        1.4661485775        0.6900905890
 C          2.2415114013        2.0574203485        0.2199196691
 C          1.4994335717        3.0256827888       -0.4254305011
 C          0.2380726519        3.3362880294        0.0554846990
 C         -0.2689336783        2.6576095198        1.1526703591
 C          0.4814883213        1.6752568896        1.7794034192
 C          1.7530843011        1.3760465989        1.3177264992
 H          2.3668256608        0.6334200688        1.8012367893
 H          0.0796576811        1.1363157899        2.6237837593
 H         -1.2526994582        2.8940544103        1.5256456191
 H         -0.3439671678        4.1070809396       -0.4242635011
 H          1.9293442819        3.5253758184       -1.2787222312
 H          3.1595682905        0.3411106077       -2.0504058807
 H          4.9308284600       -1.0522442426        0.7542711595
 H          3.9510657293       -2.8021880119        2.2180340598
 H          1.6124909390       -3.5065647609        1.9021678801
 H         -0.4213126910       -3.3364277602        0.8422037002
 C         -0.3609421011       -3.3459591006       -1.2910555098
 C          0.0672215082       -4.7754862408       -1.4194636096
 C         -1.3906776916       -4.4281502701       -1.3982821696
 H         -1.9568650617       -4.5118038101       -2.3137800696
 H         -1.9590887217       -4.6676582597       -0.5110542695
 H          0.5054559980       -5.1003034611       -2.3506188796
 H          0.4863944481       -5.2532377008       -0.5468080596
 H         -0.2275822609       -2.7005738708       -2.1489508000
