  62
        -98.93354650
 C          2.2068109006        0.9129684597       -0.1825690242
 C          3.5142112271        1.2398014841        0.2497559849
 C          4.5926634025        0.3588485358       -0.2218091657
 C          4.2873901114       -0.6748419937       -1.0272951075
 C          5.2587021685       -1.7069771671       -1.5260231828
 C          5.5624665613       -2.7262247492       -0.4091702436
 C          7.0088406139       -2.7073451986        0.0863394327
 H          7.0469164935       -3.2975987514        1.0043443845
 H          7.6425199404       -3.2040768178       -0.6513141052
 C          7.6044319241       -1.3226227159        0.3583696460
 H          8.5144569595       -1.4776484119        0.9417837517
 H          7.9124993433       -0.8644498991       -0.5825173510
 C          6.6992621482       -0.3384150888        1.1103855985
 H          7.3176552692        0.2220604126        1.8143426558
 H          5.9541283980       -0.8740708556        1.6989648519
 C          5.9922946250        0.6954242021        0.2136496709
 H          5.8934419954        1.6317757590        0.7705631432
 H          6.6093373170        0.8996461489       -0.6654993956
 H          4.8864730337       -2.5295260934        0.4257494261
 H          5.3356620392       -3.7326558799       -0.7642236223
 H          4.7940866528       -2.2040635890       -2.3777771016
 H          6.1723894897       -1.2210684732       -1.8608448255
 O          3.0183265186       -0.9528012783       -1.4268551337
 C          1.9455121844       -0.1772477053       -1.0113288995
 O          0.8407254584       -0.5574422604       -1.4450011770
 O          3.7664433794        2.2210516286        0.9997697228
 C          1.0447962356        1.7723469735        0.2839487099
 C          0.0802660136        0.9216574305        1.0723300609
 C          0.5552924646        0.2576342014        2.2014194773
 C         -0.2767295881       -0.5554988991        2.9445222397
 C         -1.5982746786       -0.7294070050        2.5718968067
 C         -2.0858926212       -0.0641412314        1.4538144925
 C         -1.2500154144        0.7659223004        0.7178367614
 H         -1.6488453401        1.2633495251       -0.1490621936
 N         -3.4418134226       -0.1922735364        1.0935142157
 S         -3.8775480121       -0.4178650247       -0.5231075486
 O         -3.3117752283       -1.6488280714       -1.0305869618
 O         -3.5985726250        0.7827733852       -1.2671418766
 C         -5.6413917583       -0.5983427406       -0.3216630715
 C         -6.2147117610       -1.8539327229       -0.3827437303
 C         -7.5830438563       -1.9765679901       -0.1970370234
 C         -8.3498433082       -0.8477480685        0.0484687271
 C         -7.7601414205        0.4065215737        0.1061834697
 C         -6.3931867988        0.5358048053       -0.0798123967
 H         -5.8923000959        1.4892562600       -0.0516530703
 H         -8.3600978491        1.2821363840        0.2947503252
 H         -9.4141659561       -0.9456714389        0.1929906011
 H         -8.0442596002       -2.9499077601       -0.2446919564
 H         -5.5794164081       -2.7016846740       -0.5837209484
 H         -3.9082763959       -0.8956795666        1.6528616079
 H         -2.2475501300       -1.3744554307        3.1448700635
 H          0.1060177997       -1.0661208247        3.8155426307
 H          1.5922588655        0.3854088249        2.4817809638
 H          1.4863689585        2.5137924598        0.9662456807
 C          0.4109762164        2.5014927864       -0.8804889716
 C         -0.3382873140        3.7776542269       -0.6447060205
 C          0.9946946414        3.8065432317       -1.3285405800
 H          1.0295988382        4.0184527946       -2.3866493297
 H          1.8445470062        4.1836700551       -0.7785119824
 H         -1.2243733083        3.9666137728       -1.2317224664
 H         -0.3951016418        4.1409166725        0.3702463782
 H          0.0426949794        1.8291807323       -1.6482963000
