  62
        -98.93312546
 C         -2.4044293662       -1.0269492420        0.3495558309
 C         -2.6879466343        0.2052235702        0.9904736935
 C         -4.0056007525        0.8192878843        0.7396526963
 C         -4.8709760923        0.1774249800       -0.0667812735
 C         -6.2464828003        0.6108254382       -0.4996022890
 C         -6.2122835957        1.7146314431       -1.5685356440
 C         -5.2141919668        2.8378595279       -1.3005999626
 H         -4.2118665182        2.4141817955       -1.2134263342
 H         -5.2126153254        3.4957532131       -2.1736963361
 C         -5.5123792323        3.6937058049       -0.0718211466
 H         -4.7828786405        4.5075593248       -0.0594040055
 H         -6.5044172080        4.1385236056       -0.1766612650
 C         -5.4414358618        2.9752427465        1.2775128517
 H         -6.3332989676        2.3802442173        1.4545277669
 H         -5.4222546172        3.7444144013        2.0551433970
 C         -4.1930971261        2.1219450398        1.4794307993
 H         -4.1107503221        1.8687738842        2.5435257967
 H         -3.3044126057        2.7252928289        1.2606047305
 H         -7.2160690608        2.1317497879       -1.6649199816
 H         -5.9447537543        1.2529701207       -2.5220379628
 H         -6.7316770439       -0.2703071775       -0.9251266415
 H         -6.8272078336        0.9246002608        0.3626759436
 O         -4.5612240469       -1.0108627303       -0.6553040493
 C         -3.3435528123       -1.6417282658       -0.4781666978
 O         -3.2485259141       -2.7179740694       -1.1004245877
 O         -1.8677250453        0.7820396343        1.7568140965
 C         -1.0419682572       -1.6402652827        0.6194536713
 C         -0.0704743912       -1.3812942625       -0.5078261267
 C         -0.2566366115       -1.9295049377       -1.7730452841
 C          0.6702002589       -1.7047829703       -2.7741884067
 C          1.8046082338       -0.9503115157       -2.5315421915
 C          1.9940695164       -0.3893913401       -1.2741262240
 C          1.0531912039       -0.6014931521       -0.2758648028
 H          1.2091116720       -0.1516442272        0.6941885305
 N          3.1224664785        0.4003980607       -1.0022478757
 S          3.8038393391        0.3125235369        0.5408704285
 O          3.8306711361       -1.0607322405        0.9913435445
 O          3.1331850651        1.2542283670        1.4016102643
 C          5.4582744669        0.8834280759        0.1983628393
 C          5.6915058676        2.2440054683        0.1282081486
 C          6.9699432528        2.6895713281       -0.1678186042
 C          7.9876935084        1.7730615377       -0.3877394742
 C          7.7387512732        0.4108616763       -0.3120017384
 C          6.4621559748       -0.0417609760       -0.0175096059
 H          6.2237079755       -1.0903288107        0.0607178655
 H          8.5325708915       -0.2989881176       -0.4800138152
 H          8.9819015874        2.1230290471       -0.6164214479
 H          7.1680291006        3.7477700977       -0.2242373882
 H          4.8716834635        2.9176552101        0.3165712643
 H          3.8237247227        0.3491871413       -1.7285660514
 H          2.5340651280       -0.7900315862       -3.3109875457
 H          0.5143188877       -2.1347723496       -3.7521748443
 H         -1.1370013438       -2.5237382484       -1.9628687336
 H         -0.6607360390       -1.1117678137        1.5046234297
 C         -1.0938852951       -3.1232049940        0.9355428755
 C          0.0952382586       -3.7585607313        1.5894916759
 C         -1.1743986014       -3.5685288472        2.3630246446
 H         -1.7703587741       -4.4374480826        2.5986223729
 H         -1.1968661666       -2.8030319978        3.1253396781
 H          0.3713015212       -4.7590584413        1.2936114361
 H          0.9375207080       -3.1223597372        1.8216048944
 H         -1.6355681090       -3.7028426844        0.1996915991
