  62
        -98.93734623
 C         -1.9300471535       -1.4015002422        0.0036811034
 C         -2.5723789735       -0.7068468791        1.0550767368
 C         -3.7621516823        0.0702830045        0.6840777151
 C         -4.1696897075        0.0899644894       -0.5979570424
 C         -5.3900158052        0.7837562784       -1.1435407047
 C         -5.3921576181        2.3229760924       -1.0692804841
 C         -6.0797787172        2.8956243065        0.1764403770
 H         -6.7962444037        2.1629455391        0.5498495172
 H         -6.6554986624        3.7765698596       -0.1145691887
 C         -5.1494317048        3.3268514532        1.3142824471
 H         -5.7590736949        3.4703449966        2.2089945166
 H         -4.7023756005        4.2916751288        1.0634634612
 C         -4.0073541275        2.3651913790        1.6427505923
 H         -3.5494741330        2.6875473894        2.5802476211
 H         -3.2310645674        2.4442935849        0.8772817129
 C         -4.4244248011        0.8857907417        1.7564402087
 H         -5.5072838124        0.7862694674        1.7007995116
 H         -4.0890841890        0.4773095685        2.7118758937
 H         -5.9301690123        2.6803459658       -1.9487713164
 H         -4.3698677519        2.6929691113       -1.1459791233
 H         -6.2724375630        0.3958454469       -0.6295436931
 H         -5.4524610242        0.4785781937       -2.1900790381
 O         -3.5130271753       -0.5809779805       -1.5833314530
 C         -2.3726980098       -1.3252026293       -1.3170907601
 O         -1.8637805108       -1.8596080711       -2.3195022799
 O         -2.1697406578       -0.7341959368        2.2499946378
 C         -0.6888148855       -2.2188964628        0.3139038331
 C          0.5014311509       -1.6323903724       -0.4053051840
 C          1.3801019309       -2.3799791387       -1.1771434196
 C          2.4422661342       -1.7676424885       -1.8212508017
 C          2.6577206078       -0.4075788753       -1.7030230977
 C          1.7971137749        0.3464893446       -0.9139460528
 C          0.7363610265       -0.2690073124       -0.2682170547
 H          0.0647959688        0.3207500301        0.3436016189
 N          2.0124186340        1.7266821774       -0.7718852435
 S          3.5780705499        2.2751572972       -0.5621402259
 O          3.4460340961        3.5224909442        0.1576789148
 O          4.2406652292        2.3546088950       -1.8402471936
 C          4.3780516147        1.0477820258        0.4562671263
 C          3.8385551794        0.7814207498        1.6992012370
 C          4.4304902445       -0.1872453143        2.4930120777
 C          5.5466923779       -0.8694130599        2.0330060577
 C          6.0798663855       -0.5863107864        0.7853512523
 C          5.4905558327        0.3803391920       -0.0138537342
 H          5.8701672922        0.6301520389       -0.9912081150
 H          6.9490576193       -1.1165960882        0.4312499710
 H          6.0026594102       -1.6252885640        2.6526395891
 H          4.0167240830       -0.4078039416        3.4639723675
 H          2.9725938004        1.3319086427        2.0310479372
 H          1.3694343903        2.1840768732       -0.1433603667
 H          3.4668266065        0.0845559680       -2.2176276176
 H          3.1093637716       -2.3586169552       -2.4297706402
 H          1.2275172058       -3.4406881599       -1.2863530369
 H         -0.5256489879       -2.0983618766        1.3952585815
 C         -0.9220270657       -3.6846452442        0.0176449717
 C         -0.1589706887       -4.7343440974        0.7674226436
 C         -1.6173729055       -4.5284625581        1.0422745694
 H         -2.3192871121       -5.2757429534        0.7037599158
 H         -1.9033030233       -4.0505744202        1.9679946531
 H          0.1405595635       -5.6283431602        0.2418013170
 H          0.5480543837       -4.4015498864        1.5119261855
 H         -1.1602304401       -3.8666531753       -1.0240964476
