  62
        -98.93470499
 C         -2.6488950402       -0.9972933692        0.7185055800
 C         -2.9512904904        0.2482713711        1.3276275995
 C         -4.2821592804        0.8006055709        1.0583883390
 C         -5.1423092502        0.1128287705        0.2861265792
 C         -6.5455637002        0.5272052503       -0.0648591112
 C         -6.6313267001        1.4933008598       -1.2543884016
 C         -6.1599488502        2.9198375099       -0.9692248621
 H         -6.4775340801        3.5365328596       -1.8123959324
 H         -6.6664697504        3.2977248902       -0.0805846523
 C         -4.6409720203        3.0630270801       -0.7986132919
 H         -4.1425444001        2.1797516800       -1.2052660415
 H         -4.2886322202        3.9209081499       -1.3758683522
 C         -4.1809101705        3.2688388607        0.6447166980
 H         -4.5642864806        4.2205645408        1.0193679576
 H         -3.0889769305        3.3185052208        0.6512768682
 C         -4.6101881205        2.1554313611        1.6090341884
 H         -4.0559331707        2.2775513515        2.5427738985
 H         -5.6763434306        2.2318590311        1.8216468282
 H         -6.0541716399        1.0781534295       -2.0838965413
 H         -7.6777162900        1.5346429596       -1.5656283118
 H         -7.0838005101       -0.3870028899       -0.3243104209
 H         -7.0234785004        0.9769091706        0.8059276286
 O         -4.8256740101       -1.0873479497       -0.2639163603
 C         -3.5703912400       -1.6632605195       -0.0909413699
 O         -3.4334200299       -2.7416702498       -0.6959869494
 O         -2.1435577705        0.8638357414        2.0743258593
 C         -1.2637724002       -1.5577713690        0.9858020904
 C         -0.2851058901       -1.0915273693       -0.0627018396
 C         -0.5566853699       -1.2382078099       -1.4193611696
 C          0.3547709302       -0.8070286102       -2.3661510496
 C          1.5473038101       -0.2181634600       -1.9838080097
 C          1.8279282299       -0.0648017994       -0.6327826397
 C          0.9140485098       -0.5071032691        0.3170122503
 H          1.1295625097       -0.3757359186        1.3688112703
 N          3.0245867198        0.5548071708       -0.2359442498
 S          4.4311808000        0.1606151006       -1.0861150594
 O          4.4809031201        0.9628263601       -2.2825885298
 O          4.5042132301       -1.2697935895       -1.2810835188
 C          5.6833898098        0.7008651111        0.0598484205
 C          6.2732604597       -0.2235519885        0.9008787710
 C          7.2285499696        0.2092233820        1.8070994310
 C          7.5730402195        1.5515605620        1.8582341305
 C          6.9721086795        2.4673413116        1.0071132100
 C          6.0172461197        2.0414969612        0.0976418900
 H          5.5308414197        2.7149155309       -0.5885786103
 H          7.2448446294        3.5094829617        1.0487974296
 H          8.3166632793        1.8855797123        2.5644561404
 H          7.6997630695       -0.5005010377        2.4678761913
 H          5.9807596698       -1.2582473085        0.8199050314
 H          3.1696553197        0.5111963913        0.7633577302
 H          2.2648131802        0.1196870198       -2.7142611897
 H          0.1345556304       -0.9303138806       -3.4163073996
 H         -1.4849699898       -1.6992688301       -1.7222706495
 H         -0.9614270504       -1.0996708085        1.9412049503
 C         -1.2461150601       -3.0665177689        1.1860624311
 C         -0.6435222799       -4.0297240992        0.2126998315
 C          0.0408337299       -3.7630409386        1.5176674915
 H          0.0351269998       -4.5314702183        2.2755883018
 H          0.9456715198       -3.1741995786        1.4894254614
 H         -1.1473214198       -4.9731389293        0.0685027118
 H         -0.1952202598       -3.6378578096       -0.6867633186
 H         -2.1324262802       -3.4117579787        1.7087165611
