  62
        -98.93988263
 C          1.5601767360        1.0861022823       -0.0044222621
 C          2.6506497109        0.8031726708        0.8549927984
 C          3.3666493692       -0.4602766396        0.6162788920
 C          2.9389800891       -1.2855627633       -0.3541835563
 C          3.4745168955       -2.6434666953       -0.7337320479
 C          4.9992368667       -2.8086976467       -0.8021690955
 C          5.7702779684       -1.5568768180       -1.2456944931
 H          6.4522040067       -1.8282551730       -2.0538307542
 H          5.0791568689       -0.8102566417       -1.6407023613
 C          6.6018217239       -0.9373443396       -0.1197258180
 H          7.0992354789       -1.7394430164        0.4299820749
 H          7.3819380103       -0.3130355379       -0.5621715102
 C          5.8266661770       -0.0623777714        0.8648149179
 H          6.5067178144        0.2173862940        1.6730204952
 H          5.5173387029        0.8637619554        0.3725889238
 C          4.5719954027       -0.7065465294        1.4769641925
 H          4.7250739884       -1.7665062543        1.6641012413
 H          4.3699504524       -0.2097408442        2.4296918190
 H          5.3754410663       -3.1303836035        0.1679273972
 H          5.1970106769       -3.6235117112       -1.5007230938
 H          3.0682257137       -3.3781553566       -0.0326686685
 H          3.0410418761       -2.8573758291       -1.7136791553
 O          1.8714725776       -0.9835086548       -1.1449062893
 C          1.1686972055        0.2044203752       -1.0102462128
 O          0.2448384612        0.3381964889       -1.8352286363
 O          3.0060428766        1.5702650437        1.7880036135
 C          0.7749322755        2.3666817647        0.2305513674
 C         -0.5984851280        1.9614321869        0.7022798538
 C         -0.7856010367        1.6010005127        2.0342336600
 C         -2.0046570050        1.1181248440        2.4718459757
 C         -3.0554890546        0.9567174859        1.5848908874
 C         -2.8722775403        1.3017307789        0.2528782327
 C         -1.6611096186        1.8265540078       -0.1768282732
 H         -1.5370176726        2.0843165301       -1.2162192026
 N         -3.9115247398        1.0815573616       -0.6695479657
 S         -4.6684331547       -0.4097464667       -0.5954562887
 O         -5.0899113651       -0.6960149157       -1.9495667658
 O         -5.7280653530       -0.3554962931        0.3828853903
 C         -3.4357559316       -1.5884705960       -0.0602529408
 C         -3.7419610136       -2.4439659704        0.9794394913
 C         -2.7964355122       -3.3685007696        1.3920188352
 C         -1.5615319923       -3.4192327220        0.7639896985
 C         -1.2697574154       -2.5542453414       -0.2788079592
 C         -2.2134721558       -1.6313811847       -0.7008269680
 H         -1.9818819008       -0.9472490933       -1.5020576844
 H         -0.3075425889       -2.5765187208       -0.7666754947
 H         -0.8214813810       -4.1340570160        1.0880006853
 H         -3.0225531363       -4.0422719257        2.2027146489
 H         -4.7102037468       -2.3628590947        1.4464418733
 H         -3.6504079178        1.2976987294       -1.6211061468
 H         -4.0077773036        0.5622795874        1.9011906294
 H         -2.1365428250        0.8505017680        3.5090001953
 H          0.0455018449        1.6901552514        2.7196226522
 H          1.2892094403        2.8793073710        1.0539963399
 C          0.7726799113        3.2706884593       -0.9836258483
 C          0.3288874101        4.6945655373       -0.8358782665
 C          1.7748133385        4.3807169402       -1.0725493812
 H          2.2023646046        4.6121489129       -2.0367430583
 H          2.4651989428        4.4983610768       -0.2502467782
 H         -0.2378692818        5.1454638577       -1.6361645709
 H          0.0356058380        5.0234965037        0.1495628307
 H          0.5274031761        2.7561074942       -1.9048790531
