  62
        -98.94847157
 C         -0.8325316986       -1.2314166182        0.5647302975
 C         -1.2020523936       -0.5366800078       -0.6117885505
 C         -2.1428177588        0.5744023058       -0.4186513106
 C         -2.4706732629        0.9614027509        0.8268341006
 C         -3.4066207001        2.0829929466        1.1877174900
 C         -4.8837958510        1.6658702561        1.2137116815
 C         -5.5104484605        1.4235621353       -0.1601871970
 H         -6.5895284349        1.3507277496       -0.0106602160
 H         -5.3281692431        2.2885131453       -0.7984879721
 C         -5.0226089107        0.1492082562       -0.8638004330
 H         -4.5451084282       -0.5095264161       -0.1345723580
 H         -5.8802943913       -0.3927186804       -1.2687601090
 C         -4.0535643456        0.3928249622       -2.0212755823
 H         -3.7496935931       -0.5781058865       -2.4202643669
 H         -4.5655752403        0.9385263944       -2.8166802343
 C         -2.7848631129        1.1668518221       -1.6360270989
 H         -3.0235448435        2.2167834432       -1.4736815872
 H         -2.0697192755        1.0858772385       -2.4571624200
 H         -4.9820636434        0.7653787574        1.8246180543
 H         -5.4407946281        2.4646942174        1.7089240746
 H         -3.1238286768        2.4175687308        2.1882704253
 H         -3.2797844003        2.9124649564        0.4920962312
 O         -1.9631124739        0.3622697705        1.9390956094
 C         -1.1936780342       -0.7860559671        1.8353438733
 O         -0.8916835786       -1.3050294675        2.9306322444
 O         -0.7910287518       -0.8390057686       -1.7606994833
 C         -0.0168326104       -2.5070090791        0.4645160527
 C          1.3202029175       -2.2376357189       -0.1796908444
 C          1.8482720143       -3.0158202587       -1.2018196404
 C          3.0949057358       -2.7262064379       -1.7285705311
 C          3.8378713203       -1.6636136048       -1.2493659594
 C          3.3215641537       -0.8850402094       -0.2188497936
 C          2.0723948888       -1.1746646823        0.3053128014
 H          1.6824599073       -0.5717916525        1.1133977689
 N          4.0609076645        0.1845660493        0.3060744591
 S          3.3054436357        1.5252016868        0.9349634188
 O          4.3349335507        2.5448348487        0.9252336872
 O          2.7378142784        1.2321458960        2.2278684926
 C          2.0236958159        2.0022174458       -0.2102787968
 C          0.8760388381        2.5718562741        0.3006573437
 C         -0.0776689598        3.0642729556       -0.5744696227
 C          0.1249346317        2.9673472360       -1.9415906541
 C          1.2733000534        2.3742807899       -2.4402409141
 C          2.2386959765        1.8960587574       -1.5696888752
 H          3.1451570875        1.4446998059       -1.9382168441
 H          1.4225437741        2.2870975757       -3.5042831904
 H         -0.6168888295        3.3553297585       -2.6212706076
 H         -0.9698530925        3.5245781547       -0.1825788443
 H          0.7500224770        2.6146388871        1.3716170253
 H          4.9116518094        0.4141940510       -0.1854693418
 H          4.8106757570       -1.4391334407       -1.6590760154
 H          3.4924535704       -3.3356960337       -2.5255882279
 H          1.2841596441       -3.8483930775       -1.5878663527
 H          0.1716213269       -2.8277077919        1.5002159608
 C         -0.8261695206       -3.5773183910       -0.2396793395
 C         -0.6105756216       -5.0245480389        0.0821012590
 C         -1.8583887310       -4.3326241888        0.5402265792
 H         -2.7932173327       -4.5775850705        0.0586381388
 H         -1.9581254489       -4.0947907591        1.5897977356
 H         -0.6921604472       -5.7488707006       -0.7142280763
 H          0.1348697064       -5.2660745512        0.8247327420
 H         -1.0708751161       -3.3090761288       -1.2609252528
