  62
        -98.94437489
 C          1.8429817989        1.0520649708       -0.1950333898
 C          2.3674194492       -0.0850389785       -0.8551080746
 C          3.8321091407       -0.2136876271       -0.8372041521
 C          4.5714951166        0.7363559131       -0.2360648026
 C          6.0653160600        0.7000134340       -0.0962493717
 C          6.4829619898        0.0169718644        1.2136998315
 C          5.7945268036       -1.3261196187        1.4570940204
 H          6.1879846272       -1.7283204435        2.3931615521
 H          4.7250626460       -1.1583217791        1.6034366151
 C          5.9943452543       -2.3545160777        0.3351502801
 H          6.8437042158       -2.0660788943       -0.2852160000
 H          6.2343352881       -3.3206318281        0.7841373515
 C          4.7680414384       -2.5693371598       -0.5540999488
 H          3.8918236698       -2.7675191049        0.0687247759
 H          4.9424617945       -3.4592146828       -1.1649689696
 C          4.4272815899       -1.4186427061       -1.5094557625
 H          5.3132525537       -1.1427374962       -2.0850834316
 H          3.6638457830       -1.7800523817       -2.2048756703
 H          7.5651751801       -0.1242365690        1.1996111988
 H          6.2378005835        0.6827611593        2.0443877529
 H          6.4919474860        0.1714931083       -0.9464487722
 H          6.4359299397        1.7264195348       -0.0946795211
 O          4.0311611113        1.8269411675        0.3653602219
 C          2.6583505019        2.0067777110        0.4120966045
 O          2.2927925140        3.0359179961        1.0150972458
 H         -1.8401266704       -0.1905367156       -1.0468631096
 C         -1.4331741985       -0.5477942670       -0.1160312703
 C         -0.3366909819        0.0704380891        0.4630581029
 C          0.1571074080       -0.4355925169        1.6638090425
 C         -0.4110530587       -1.5485676254        2.2502554534
 C         -1.4962952395       -2.1737086811        1.6606694063
 C         -2.0058624572       -1.6695799593        0.4712324105
 N         -3.1025899714       -2.2842334531       -0.1493353014
 S         -4.2730454829       -1.3576283447       -0.8927429214
 O         -5.4506588485       -2.1994076884       -0.8950402043
 O         -3.8236570236       -0.9070369144       -2.1853856833
 C         -4.5255754147        0.0391136593        0.1894785816
 C         -4.4431127695        1.3185499589       -0.3185185209
 C         -4.6391768492        2.3941646144        0.5332266120
 C         -4.9104174212        2.1717909063        1.8739251723
 C         -4.9954250597        0.8793072912        2.3691525733
 C         -4.8039623156       -0.1990134493        1.5212283674
 H         -4.8741790265       -1.2140471722        1.8764253734
 H         -5.2092045846        0.7099525593        3.4121636404
 H         -5.0576376606        3.0103989010        2.5360852113
 H         -4.5773173365        3.3994617629        0.1476241201
 H         -4.2240388996        1.4471260411       -1.3658383967
 H         -3.4980721947       -3.0644414367        0.3535137122
 H         -1.9361448552       -3.0507003940        2.1105573205
 H         -0.0083977087       -1.9341732134        3.1747949565
 H          1.0064453770        0.0522225131        2.1231874887
 C          0.3410542840        1.2717276425       -0.1483328873
 H          0.1794024286        2.1332965425        0.5160453004
 C         -0.1679858418        1.6218529533       -1.5308309218
 C         -1.3587797965        2.5150294951       -1.6965578628
 C          0.0108146640        3.0228172842       -2.0309853837
 H          0.2699838923        3.1713794693       -3.0685737389
 H          0.4738767781        3.7311969566       -1.3592987079
 H         -2.0410622449        2.3115199145       -2.5085231669
 H         -1.8312038956        2.8865710298       -0.8000109980
 H         -0.0297100586        0.8163514237       -2.2435795038
 O          1.6533520928       -0.9492358015       -1.4277826644
