  62
        -98.94037183
 C         -2.3365542666        0.6760740083        0.1496253014
 C         -3.5713899097        1.1291892768       -0.3737207103
 C         -4.7735221308        0.5206852559        0.2063786727
 C         -4.6510030814       -0.4031237232        1.1771931460
 C         -5.7826211357       -1.0862547278        1.8968171534
 C         -6.3625413116       -2.2972570958        1.1533317848
 C         -7.2038658238       -1.9623987421       -0.0788092830
 H         -7.7248827101       -2.8767763825       -0.3693960234
 H         -7.9626995129       -1.2268635990        0.1897196576
 C         -6.3922290004       -1.4541407587       -1.2784452867
 H         -5.3380878766       -1.7031128301       -1.1359633096
 H         -6.7224792600       -1.9659376786       -2.1851626792
 C         -6.5146061277        0.0476623962       -1.5356355394
 H         -7.5437013335        0.2902677647       -1.8095917146
 H         -5.8715178876        0.3049055716       -2.3811427948
 C         -6.1067843150        0.9265534005       -0.3461824940
 H         -6.0197877011        1.9581875325       -0.6958560007
 H         -6.8688731995        0.8839382667        0.4316648546
 H         -5.5405231984       -2.9567044720        0.8657512773
 H         -6.9930745646       -2.8409317905        1.8605950302
 H         -5.3783092469       -1.4299709798        2.8513140323
 H         -6.5766522190       -0.3656418376        2.0952281158
 O         -3.4439961332       -0.8159169281        1.6489378568
 C         -2.2593223084       -0.2944621243        1.1481525291
 O         -1.2317348026       -0.7670362397        1.6700873957
 O         -3.6637765359        2.0033781976       -1.2768522180
 C         -1.0513060841        1.2944364852       -0.3687378853
 C         -0.1121576720        0.2320243771       -0.8814368373
 C         -0.5626316063       -0.6489682511       -1.8619745321
 C          0.2696868512       -1.6286566789       -2.3667533959
 C          1.5718214859       -1.7467080765       -1.9124646390
 C          2.0294649788       -0.8773344873       -0.9297823112
 C          1.1900354084        0.1070749342       -0.4261307164
 H          1.5726606401        0.7686557772        0.3318775384
 N          3.3330380507       -0.9983526542       -0.4224261983
 S          4.1433881436        0.3755639952        0.1226414128
 O          3.6807610302        0.7076863661        1.4465740155
 O          4.0620236340        1.4281027879       -0.8657031686
 C          5.8095631871       -0.2532592145        0.2202872827
 C          6.7404874927        0.1110572134       -0.7336393887
 C          8.0273852718       -0.3964650233       -0.6423514887
 C          8.3585964268       -1.2565382396        0.3935494224
 C          7.4130083741       -1.6135125868        1.3438373468
 C          6.1256460746       -1.1080983201        1.2599111582
 H          5.3612901394       -1.3481521081        1.9807412007
 H          7.6745426650       -2.2806402278        2.1493491058
 H          9.3607539170       -1.6490928786        0.4632641001
 H          8.7656479177       -0.1183215617       -1.3770999889
 H          6.4390482068        0.7879408061       -1.5167427361
 H          3.9273723263       -1.5837913735       -0.9929229659
 H          2.2231194835       -2.5114462905       -2.3075559495
 H         -0.0944162631       -2.3038056315       -3.1267352317
 H         -1.5787452666       -0.5532210938       -2.2207114082
 H         -1.3516671350        1.9242409957       -1.2199810393
 C         -0.4376192562        2.1818413665        0.6938134012
 C          0.4610152133        3.3145886574        0.3004378323
 C         -0.9116657821        3.5960839314        0.8315897050
 H         -1.0066947327        4.0134061409        1.8227817486
 H         -1.6689908091        3.9337861615        0.1393364817
 H          1.3162482902        3.5318262755        0.9232609483
 H          0.6423956442        3.4642083155       -0.7534104733
 H         -0.2044014527        1.6421345043        1.6060357692
