  62
        -98.94485995
 C         -2.5797866860       -0.1200734775        0.0709735334
 C         -2.3548297015        0.8694009198        1.0564766511
 C         -2.1594672577        2.2383322734        0.5634716145
 C         -2.2185067562        2.4749789945       -0.7596172354
 C         -2.0456728662        3.8216200375       -1.3999344468
 C         -0.5909547505        4.0787117702       -1.8124946552
 C          0.4318019644        3.8018288916       -0.7101940158
 H          0.4791361095        2.7277539678       -0.5147707464
 H          1.4104353114        4.0922450904       -1.0995511433
 C          0.1723006523        4.5465874870        0.6064424964
 H          1.1230378528        4.9372854174        0.9753726348
 H         -0.4842282140        5.3998747938        0.4296791696
 C         -0.4106302811        3.6786624411        1.7240255812
 H         -0.2982169157        4.2179263082        2.6689611079
 H          0.1685787599        2.7535341495        1.8031431692
 C         -1.8936082597        3.3107761686        1.5811990405
 H         -2.2316729285        2.9045301137        2.5392707997
 H         -2.4772780057        4.2079900510        1.3633199184
 H         -0.3537599988        3.4373114406       -2.6642223970
 H         -0.5071110975        5.1189436469       -2.1342670749
 H         -2.6756463318        3.8559303388       -2.2908764907
 H         -2.3771101746        4.5896552592       -0.7035269184
 O         -2.4343417284        1.4984597273       -1.6776608663
 C         -2.5795896383        0.1744265997       -1.2919272498
 O         -2.7144034842       -0.6238265573       -2.2393642191
 H         -0.1860868126       -0.8142252340        0.3765270784
 C         -0.3091544572       -1.8158423764       -0.0081873585
 C         -1.5757809941       -2.3853244191       -0.0297037152
 C         -1.7111581296       -3.6808187509       -0.5110621748
 C         -0.6026825940       -4.3746041653       -0.9669577825
 C          0.6536867650       -3.7986570588       -0.9538653010
 C          0.7991855687       -2.4991196343       -0.4771499349
 N          2.0515593439       -1.8638893620       -0.5019650099
 S          2.3453997191       -0.5192444034        0.4664976418
 O          2.0926497662       -0.8333461956        1.8564519906
 O          1.6427532511        0.6142979621       -0.0780475686
 C          4.0971254275       -0.3303399008        0.1960737758
 C          4.9865501920       -0.9064060895        1.0834286099
 C          6.3464427850       -0.7815382300        0.8462032626
 C          6.7914544354       -0.0882652767       -0.2693927775
 C          5.8869473577        0.4867086884       -1.1498043202
 C          4.5259665609        0.3655721338       -0.9180662518
 H          3.7849284498        0.8010308670       -1.5682904805
 H          6.2360395283        1.0283907757       -2.0140268435
 H          7.8500067904        0.0075808138       -0.4522811795
 H          7.0519185331       -1.2239578932        1.5308641750
 H          4.5942189782       -1.4260862163        1.9427944979
 H          2.8318517061       -2.5050007101       -0.5219031166
 H          1.5134717658       -4.3401336807       -1.3171371422
 H         -0.7204733237       -5.3810954931       -1.3389993492
 H         -2.6831534152       -4.1459166360       -0.5320504125
 C         -2.7287503985       -1.5672331712        0.5013941877
 H         -2.6524121471       -1.5535168438        1.6002020755
 C         -4.0869717052       -2.1124500077        0.1129047030
 C         -4.7553157660       -3.1548363098        0.9573877915
 C         -5.2762028117       -1.7501274065        0.9494971972
 H         -6.2131504368       -1.5467724341        0.4533454753
 H         -5.0989125724       -1.1322292760        1.8179553211
 H         -5.3399703306       -3.9183355928        0.4667796430
 H         -4.2329712755       -3.4945545388        1.8391129918
 H         -4.2241838757       -2.1541675567       -0.9616023723
 O         -2.3296086026        0.6189049195        2.2939638814
