  62
        -98.94519458
 C          2.0637569195        0.9535271294        0.0358771892
 C          2.7648005896        0.2445702697        1.0395282593
 C          3.3959304895       -1.0099256505        0.6156654197
 C          3.2311555994       -1.4453717309       -0.6468804002
 C          3.7779334993       -2.7249466611       -1.2196720798
 C          5.2294686393       -2.6222770713       -1.7080324800
 C          6.2827330294       -2.5361915110       -0.6027634001
 H          6.1328031194       -3.3530225907        0.1039074102
 H          7.2551255093       -2.6881350711       -1.0751893901
 C          6.3029678595       -1.1982727407        0.1495024895
 H          5.7672786694       -0.4451797109       -0.4328809007
 H          7.3340852995       -0.8522896407        0.2494098493
 C          5.7058683296       -1.2523850003        1.5556693996
 H          5.7389701796       -0.2461011501        1.9808275393
 H          6.3126266596       -1.9050583601        2.1870917097
 C          4.2518288696       -1.7400134202        1.6065361498
 H          4.2079379695       -2.8144746403        1.4286668002
 H          3.8548879596       -1.5342652199        2.6038719598
 H          5.3158380492       -1.7527403815       -2.3635352602
 H          5.4339094492       -3.5122382915       -2.3076046997
 H          3.1430021392       -2.9777188113       -2.0718043197
 H          3.6962298393       -3.5218518208       -0.4796252496
 O          2.5059074793       -0.7595226711       -1.5699229303
 C          1.9165651894        0.4582399290       -1.2604988307
 O          1.3040134094        0.9858226287       -2.2071733808
 O          2.8488048597        0.6355542900        2.2359360792
 C          1.3832858896        2.2625025795        0.3988564988
 C         -0.1068858804        2.0982430495        0.2298720490
 C         -0.8947727504        2.9201127793       -0.5635268112
 C         -2.2484731905        2.6656218493       -0.7066915210
 C         -2.8440138205        1.5970674195       -0.0622543906
 C         -2.0661375104        0.7753506897        0.7433945496
 C         -0.7141241204        1.0346457697        0.8879839694
 H         -0.1074207804        0.3865537399        1.5098648395
 N         -2.6673023004       -0.3213126900        1.4019907499
 S         -3.2270733805       -1.5435515803        0.3849975304
 O         -3.2605475305       -2.7350906701        1.2061016907
 O         -2.4443272806       -1.6219737807       -0.8281060797
 C         -4.8944258805       -1.0464158104        0.0107859303
 C         -5.8004230805       -0.9669999900        1.0505083004
 C         -7.1017537105       -0.5790955301        0.7744156704
 C         -7.4726836906       -0.2813412104       -0.5286271697
 C         -6.5514852006       -0.3687032308       -1.5612826097
 C         -5.2475179206       -0.7549378308       -1.2920339597
 H         -4.4939540607       -0.8317300310       -2.0596730998
 H         -6.8412638007       -0.1369528811       -2.5735798798
 H         -8.4860839206        0.0204455995       -0.7412143197
 H         -7.8211890404       -0.5101189098        1.5742560804
 H         -5.4706354104       -1.2135292797        2.0458203904
 H         -2.0619977004       -0.7334448398        2.0993793600
 H         -3.8963489905        1.3936475295       -0.1761158905
 H         -2.8471515805        3.3076043691       -1.3345776012
 H         -0.4468608805        3.7508655391       -1.0831746215
 H          1.5927088597        2.4129474198        1.4683381988
 C          1.9708932796        3.4176701993       -0.3817788716
 C          1.8960062197        4.8095000294        0.1691315080
 C          3.2077389296        4.0862039094        0.1362546681
 H          3.9571731296        4.4039716391       -0.5729525020
 H          3.6162423397        3.7212799496        1.0674421182
 H          1.7465913997        5.6285411392       -0.5177490422
 H          1.4145465298        4.9418049497        1.1260665480
 H          1.8874400895        3.2826021089       -1.4540479315
