  62
        -98.94963014
 C          1.4968564096        1.1030313312        0.0128300302
 C          2.4950199195        0.6469205210        0.9037271302
 C          2.9859181997       -0.7174527489        0.6743108897
 C          2.4493519299       -1.4516116685       -0.3179535807
 C          2.8741425002       -2.8452006083       -0.6784987912
 C          3.9834154203       -2.8369334778       -1.7395994110
 C          5.1424842202       -1.8959862078       -1.4112144104
 H          5.8785087303       -1.9944434273       -2.2118810803
 H          4.7801390001       -0.8657413178       -1.4303038700
 C          5.8171346100       -2.1692840682       -0.0598427604
 H          6.9001687800       -2.1378347981       -0.1956739202
 H          5.5624740001       -3.1719244384        0.2854393291
 C          5.4763061497       -1.1563835387        1.0347043400
 H          5.6401642196       -0.1429545586        0.6599799704
 H          6.1649842296       -1.3125243490        1.8693112100
 C          4.0518187896       -1.2358056491        1.5986898397
 H          3.8305459397       -2.2614635793        1.9027806292
 H          4.0098577894       -0.6001478295        2.4884453900
 H          4.3590736305       -3.8554759077       -1.8530248113
 H          3.5481590305       -2.5263824074       -2.6921274309
 H          3.2166972701       -3.3562759287        0.2194048787
 H          2.0040734903       -3.3740742083       -1.0719311215
 O          1.4813986100       -0.9856699483       -1.1450716306
 C          0.9713580299        0.2916332316       -0.9917674202
 O          0.0723405999        0.5882607018       -1.8032595502
 H         -0.4105168006        0.6392057503        1.6140111597
 C         -1.0885764806        1.3468868704        1.1592702799
 C         -0.5884728906        2.3887682408        0.3884740804
 C         -1.4889795406        3.2874109909       -0.1703170393
 C         -2.8513072507        3.1254932607        0.0159506204
 C         -3.3452641706        2.0549076803        0.7385672499
 C         -2.4515470006        1.1571877202        1.3101673896
 N         -2.8947557806        0.0275247798        2.0325396791
 S         -2.5550617203       -1.4649429598        1.3436998485
 O         -3.1674845904       -2.4344413103        2.2276152680
 O         -1.1372525903       -1.6005942896        1.1328954687
 C         -3.4441575901       -1.4361454393       -0.2029905816
 C         -2.9025313700       -0.7777419988       -1.2886824913
 C         -3.6497609798       -0.6948278684       -2.4545596013
 C         -4.9125783397       -1.2628896285       -2.5147713718
 C         -5.4407456798       -1.9213502390       -1.4141131121
 C         -4.7036341400       -2.0044366394       -0.2445486821
 H         -5.0698253901       -2.5078358598        0.6358052777
 H         -6.4217997798       -2.3657041191       -1.4629202225
 H         -5.4866359396       -1.1925137782       -3.4252042818
 H         -3.2308317497       -0.1814212780       -3.3051609511
 H         -1.9144558600       -0.3473981687       -1.2272925009
 H         -3.8778526707        0.0595791396        2.2686018189
 H         -4.4084362106        1.9105920701        0.8588832496
 H         -3.5378797207        3.8312639808       -0.4258411894
 H         -1.1234962106        4.1126878612       -0.7593224189
 C          0.9061235894        2.4878176411        0.2035225707
 H          1.3479317092        2.8709628407        1.1359960810
 C          1.3092114195        3.3991112316       -0.9380641588
 C          1.4938677793        4.8689994915       -0.7090434782
 C          2.6858511594        3.9908340217       -0.9384543284
 H          3.2144059895        4.0682400622       -1.8767175682
 H          3.3226030393        3.7589474615       -0.0970408183
 H          1.3284715790        5.2446709411        0.2893719519
 H          1.2064569393        5.5530914018       -1.4932277380
 H          0.9037331997        3.0736634819       -1.8897354290
 O          2.9471412993        1.3465798506        1.8521827106
