  62
        -98.94040460
 C         -2.1012396123       -1.2501982916       -0.0325123404
 C         -2.3900102333       -0.0681574654       -0.7601479084
 C         -3.7968825725        0.3612417127       -0.7445305048
 C         -4.7199001632       -0.3669563839       -0.0929588828
 C         -6.1933550807       -0.0724036624       -0.0175708761
 C         -6.5738439212        0.9287587131        1.0817183292
 C         -6.1769143635        2.3796941026        0.8062228346
 H         -6.5452467172        2.6760051463       -0.1764857830
 H         -6.6896168889        2.9978826401        1.5458806152
 C         -4.6686745134        2.6519701489        0.8963823429
 H         -4.1812827808        1.8341540162        1.4323790951
 H         -4.4962558985        3.5608277426        1.4773432551
 C         -3.9758886261        2.8403289373       -0.4534388906
 H         -2.9073764765        2.9857521190       -0.2730504215
 H         -4.3603838536        3.7395300951       -0.9401683515
 C         -4.1364675986        1.6570233849       -1.4167744048
 H         -5.1514985860        1.6284015874       -1.8126584285
 H         -3.4393782209        1.7953106348       -2.2470057078
 H         -7.6592899789        0.8875185450        1.1981945494
 H         -6.1260487628        0.6012430352        2.0228355086
 H         -6.5438037966        0.2944908093       -0.9827071734
 H         -6.6898123302       -1.0217565159        0.1950553719
 O         -4.4054649053       -1.5048515284        0.5812986868
 C         -3.0953758889       -1.9481675048        0.6602118312
 O         -2.9455682362       -2.9657221681        1.3657465118
 O         -1.5401214223        0.6013767046       -1.4006106425
 C         -0.6880040542       -1.7951660402        0.1018162727
 C          0.2550435776       -0.6740665341        0.4595120351
 C          0.2228035421       -0.1523649147        1.7490685514
 C          1.0495309203        0.8952214087        2.1097455334
 C          1.9231485921        1.4473325450        1.1898569190
 C          1.9604696428        0.9355907673       -0.1002913182
 C          1.1412152313       -0.1281607571       -0.4553832659
 H          1.1629265222       -0.5015940805       -1.4671773338
 N          2.8369035016        1.5004051903       -1.0442620760
 S          4.4455972112        1.6743688707       -0.6258416419
 O          4.5921700457        2.7705432960        0.2983363512
 O          5.1555128402        1.7978330661       -1.8788652529
 C          4.8613272292        0.1376458181        0.1777092504
 C          5.0301887926       -0.9822237837       -0.6127163143
 C          5.2820894633       -2.2009453212       -0.0045846324
 C          5.3507600441       -2.2801872588        1.3782460593
 C          5.1799654509       -1.1467938299        2.1576109501
 C          4.9311673286        0.0759576145        1.5544352885
 H          4.7978126479        0.9805122517        2.1242504143
 H          5.2363532229       -1.2114319140        3.2322928799
 H          5.5407875748       -3.2312055517        1.8504029441
 H          5.4196024411       -3.0837104583       -0.6082712117
 H          4.9769901169       -0.8785770513       -1.6846604363
 H          2.7405839133        1.1102963328       -1.9699845360
 H          2.5644354967        2.2750473228        1.4463410247
 H          1.0092829423        1.2912587982        3.1132582911
 H         -0.4701860341       -0.5739094682        2.4647695440
 H         -0.7335580108       -2.4844639344        0.9601617333
 C         -0.2123434906       -2.6186351115       -1.0859146002
 C         -1.1616107405       -3.5225992584       -1.8128376862
 C         -0.6017212727       -2.3152325676       -2.5002016739
 H          0.1352022118       -2.4664028408       -3.2760546977
 H         -1.2518214966       -1.4730631717       -2.6763705047
 H         -0.8140016887       -4.4983877104       -2.1167912839
 H         -2.1979061292       -3.5038316733       -1.5077018073
 H          0.7921287629       -3.0008491503       -0.9297888832
