  62
        -98.94062220
 C         -2.0193497949       -1.2815824303        0.3125473353
 C         -1.7488784334       -0.3046164569       -0.6722006433
 C         -2.3594072825        1.0264461319       -0.4728034540
 C         -3.0951521503        1.2444873589        0.6331811263
 C         -3.7778373307        2.5131077643        1.0741063628
 C         -2.7953658024        3.5619763609        1.6129963903
 C         -1.5828494947        3.8147825043        0.7216373799
 H         -0.9462861224        4.5423608918        1.2318385383
 H         -1.0076519250        2.8923652721        0.6242598373
 C         -1.9083498818        4.3619420522       -0.6664614260
 H         -2.5210972798        5.2598544422       -0.5630182871
 H         -0.9637958524        4.6573596765       -1.1275018099
 C         -2.6121777847        3.3914797995       -1.6205670903
 H         -2.4760643442        3.7759793865       -2.6351506597
 H         -3.6848974484        3.3668381019       -1.4452842434
 C         -2.0548436352        1.9719650062       -1.6090055185
 H         -2.3986649781        1.4544519249       -2.5122232729
 H         -0.9631207915        2.0050647384       -1.6949368884
 H         -3.3411970968        4.4954394389        1.7626543256
 H         -2.4350665347        3.2235067258        2.5879379577
 H         -4.3694191483        2.9259029867        0.2626045883
 H         -4.4637479475        2.2340370787        1.8773442903
 O         -3.2949167579        0.2772461587        1.5770620904
 C         -2.7805392084       -0.9969458037        1.4437995489
 O         -3.0543430890       -1.7701872150        2.3857178138
 H          0.2456418387       -1.1953948846        1.5506745344
 C          0.7688358773       -1.8002074916        0.8193614008
 C          0.0358924927       -2.6440117710       -0.0063510093
 C          0.7208024128       -3.4197693906       -0.9322248047
 C          2.0994008384       -3.3392191985       -1.0322973842
 C          2.8239075163       -2.4921631714       -0.2145949601
 C          2.1485363407       -1.7123318020        0.7168919258
 N          2.8689468859       -0.8524014287        1.5687037839
 S          3.9235236631        0.2701581001        0.9168457894
 O          4.9897785596       -0.4240980774        0.2405970576
 O          4.3100068500        1.1082083045        2.0289523800
 C          2.9823456584        1.2271616472       -0.2573877433
 C          2.7256077992        0.7056622979       -1.5099429516
 C          1.9859422291        1.4578322487       -2.4079956119
 C          1.5261439309        2.7142719193       -2.0443300488
 C          1.7902064385        3.2225696592       -0.7814446882
 C          2.5180478948        2.4699642162        0.1250725574
 H          2.7500451508        2.8284776007        1.1152004935
 H          1.4321586842        4.1996567494       -0.4991206220
 H          0.9635039521        3.3018903758       -2.7532897149
 H          1.7665152237        1.0579828649       -3.3846190282
 H          3.1070102842       -0.2686253081       -1.7668543264
 H          2.2912370379       -0.4054138022        2.2660308225
 H          3.8965659081       -2.4133729851       -0.2879248661
 H          2.6183217156       -3.9466534023       -1.7583649518
 H          0.1756097897       -4.0855257290       -1.5806617614
 C         -1.4639192991       -2.6846931559        0.1567855515
 H         -1.6912451720       -3.2093133696        1.0968456046
 C         -2.1728056428       -3.3938399382       -0.9794378202
 C         -2.3700393891       -4.8787767456       -0.9427341216
 C         -3.5371566091       -3.9622675866       -0.7350029690
 H         -4.2782853526       -3.8817867691       -1.5160006879
 H         -3.9424519523       -3.8636540848        0.2618649629
 H         -1.9891038274       -5.4140508087       -0.0860454960
 H         -2.3135524119       -5.4304870267       -1.8690575376
 H         -1.9916486928       -2.9228170278       -1.9388504544
 O         -1.0279945002       -0.5232915372       -1.6797230690
