  62
        -98.93180302
 C         -1.5257886401       -1.6422065849        0.4747684588
 C         -1.6662913813       -0.2950884432        0.8908434899
 C         -2.8300461237        0.4497164975        0.3779710024
 C         -3.6892728161       -0.1769263993       -0.4453148866
 C         -4.9367215741        0.3613509195       -1.0999694195
 C         -5.8644379279        1.2164297262       -0.2230405185
 C         -5.8592274737        2.7002115849       -0.5958785992
 H         -5.8244577317        2.7845232138       -1.6841790435
 H         -6.8000910234        3.1462558180       -0.2656560321
 C         -4.7216755089        3.5199023942        0.0107941941
 H         -4.7527891784        4.5131214704       -0.4434338902
 H         -4.8991227729        3.6466954284        1.0809351443
 C         -3.3207080472        2.9353636466       -0.1809330432
 H         -2.6048801280        3.7551620118       -0.0921604596
 H         -3.2147070706        2.5278640731       -1.1858889195
 C         -2.9526557379        1.8687494938        0.8614233451
 H         -1.9741652521        2.0931470776        1.2962766577
 H         -3.6653035479        1.8979970124        1.6905853399
 H         -5.6057622525        1.0875633159        0.8267512075
 H         -6.8812048697        0.8418193754       -0.3524566413
 H         -5.4728018800       -0.5218579324       -1.4549687589
 H         -4.6453454821        0.9245537078       -1.9902591014
 O         -3.5027629911       -1.4681958972       -0.8381134535
 C         -2.4216241495       -2.2299861823       -0.4171986875
 O         -2.3985140257       -3.3755133024       -0.9020058016
 O         -0.8471945560        0.2631048954        1.6691167901
 C         -0.3097060161       -2.3827719176        1.0041763156
 C          0.8554330319       -2.0790789377        0.0986846808
 C          0.8033786126       -2.3844925749       -1.2584536966
 C          1.8531720875       -2.0479186414       -2.0932540809
 C          2.9667849627       -1.3902436095       -1.5978390720
 C          3.0180666229       -1.0640152825       -0.2494513295
 C          1.9701394926       -1.4181238968        0.5913700485
 H          2.0098130462       -1.1509722321        1.6384856887
 N          4.1381281088       -0.3681498806        0.2529114891
 S          4.3993937214        1.1806476915       -0.3309710550
 O          4.5935058536        1.1141645043       -1.7565045567
 O          5.5014244889        1.7020575552        0.4440492579
 C          2.9110264653        2.0887225237        0.0464522777
 C          2.9000565035        2.9184712869        1.1496339105
 C          1.7351957250        3.5978890239        1.4654492281
 C          0.6045344316        3.4268435734        0.6826837578
 C          0.6274642654        2.5814116099       -0.4150813130
 C          1.7914969028        1.9045629372       -0.7406416133
 H          1.8445868108        1.2440832072       -1.5913551628
 H         -0.2589616173        2.4395174786       -1.0127386609
 H         -0.3023921802        3.9550996825        0.9320173697
 H          1.7097564487        4.2534349498        2.3211505075
 H          3.8034719390        3.0232101432        1.7289376604
 H          4.1681512177       -0.3431992164        1.2630618072
 H          3.7810221395       -1.0997920844       -2.2413948039
 H          1.8035656893       -2.2955220105       -3.1430885473
 H         -0.0737574134       -2.8800176532       -1.6481847782
 H         -0.0991172872       -1.9154613348        1.9789469339
 C         -0.5399280354       -3.8657812687        1.2493460992
 C          0.1984772176       -4.9515832358        0.5305629033
 C          0.5071349624       -4.6658022299        1.9674442056
 H          0.1954510097       -5.3747177686        2.7193935975
 H          1.4428134179       -4.1726051682        2.1857800051
 H         -0.3504487938       -5.8474443793        0.2834214888
 H          0.9313754954       -4.6739671130       -0.2104488504
 H         -1.5718675105       -4.0818729498        1.5032898643
