  62
        -98.94409194
 C         -1.8198954119       -1.3508397250        0.1262612961
 C         -1.9865059346       -0.3523785620       -0.8639694589
 C         -3.3318559267        0.2340693996       -0.9682646610
 C         -4.3092135364       -0.1872621071       -0.1464933413
 C         -5.7020749471        0.3693736560       -0.1077857722
 C         -5.8123491838        1.5221284868        0.8999866804
 C         -4.7172689014        2.5787565160        0.7531821836
 H         -4.9151961567        3.3571382375        1.4933691316
 H         -3.7534321028        2.1320534139        1.0089845711
 C         -4.6283281100        3.2116766602       -0.6426050092
 H         -4.5206688880        4.2926806350       -0.5303608828
 H         -5.5548338416        3.0340392119       -1.1898281089
 C         -3.4435785785        2.7311975210       -1.4827037831
 H         -2.5229151747        2.8232454647       -0.9004740482
 H         -3.3503713102        3.3932716030       -2.3478260718
 C         -3.5402449157        1.2949407093       -2.0127529801
 H         -4.4970126944        1.1541772463       -2.5193057543
 H         -2.7398974646        1.1572782497       -2.7455196960
 H         -6.7908173164        1.9912850473        0.7822341930
 H         -5.7536686238        1.1072589270        1.9089393320
 H         -5.9784617339        0.7146538473       -1.1021381395
 H         -6.3829522570       -0.4290476538        0.1919323384
 O         -4.1176976091       -1.1515753036        0.7880198993
 C         -2.8809347206       -1.7497991651        0.9475872029
 O         -2.8492850275       -2.6209017489        1.8396090639
 O         -1.0741018220        0.0543430651       -1.6336095356
 C         -0.5099684106       -2.0853250157        0.3695195438
 C          0.4652330222       -1.2690642362        1.1827142505
 C          1.0243857982       -1.7738630759        2.3506281221
 C          1.9532543934       -1.0373420557        3.0660895843
 C          2.3404392396        0.2192720901        2.6349002309
 C          1.7792339536        0.7343170012        1.4746699121
 C          0.8579141051       -0.0094034016        0.7534957985
 H          0.4392494927        0.3936256043       -0.1568073893
 N          2.1816959771        2.0111033661        1.0131131112
 S          3.7450050234        2.0454893066        0.4048635282
 O          4.6694382474        1.8570980311        1.4936806498
 O          3.8607440498        3.2866341270       -0.3264327271
 C          3.8093964855        0.6530875230       -0.7067607304
 C          3.3444110897        0.8172750628       -1.9959926380
 C          3.3061716500       -0.2809064554       -2.8392489012
 C          3.7205669912       -1.5197523844       -2.3753782550
 C          4.1782382277       -1.6695682352       -1.0754334263
 C          4.2219457919       -0.5741450698       -0.2286162313
 H          4.5711459478       -0.6474683862        0.7882309946
 H          4.4949656557       -2.6353947076       -0.7161657764
 H          3.6862696732       -2.3732093708       -3.0345918715
 H          2.9451603836       -0.1688446259       -3.8491160370
 H          3.0310124036        1.7974955911       -2.3187370952
 H          1.5577721143        2.3726929363        0.3039944427
 H          3.0738923683        0.8019480789        3.1683874565
 H          2.3795719651       -1.4451539417        3.9699385832
 H          0.7208546234       -2.7491730610        2.7018748969
 H         -0.7787906013       -2.9718189400        0.9589499430
 C          0.1559755544       -2.5490682694       -0.9135057172
 C          1.0335911711       -3.7617775151       -0.8784759085
 C         -0.3030193077       -3.8227867179       -1.5536766927
 H         -0.3392969692       -3.8729216680       -2.6313734453
 H         -1.0988702975       -4.3673385309       -1.0658515258
 H          1.9194222648       -3.7714446745       -1.4930804700
 H          1.1454531756       -4.2718614443        0.0661149462
 H          0.4421307831       -1.7358022819       -1.5674255191
