  62
        -98.93874483
 C         -1.9550218459       -1.3271758152       -0.0544349895
 C         -2.5964081898       -0.6871393069        1.0288837781
 C         -3.7735366594        0.1454656448        0.7131374803
 C         -4.1571425498        0.2596046061       -0.5723034863
 C         -5.2865133765        1.0809821816       -1.1346123196
 C         -4.9509659002        2.5802184460       -1.2019132177
 C         -4.2507330259        3.1401203602        0.0338131508
 H         -3.3308030386        2.5787954318        0.2091710346
 H         -3.9619690750        4.1714020311       -0.1866417648
 C         -5.0903810642        3.1525138129        1.3091173871
 H         -5.9834683706        3.7589343421        1.1425258957
 H         -4.4962658011        3.6436723801        2.0842623855
 C         -5.5251096201        1.7841802164        1.8376237472
 H         -5.9054802768        1.9341061072        2.8523420679
 H         -6.3506773362        1.3848610222        1.2548915574
 C         -4.4049769124        0.7537446498        1.9425701981
 H         -3.5799544129        1.1810928481        2.5240964401
 H         -4.7674183389       -0.0932764080        2.5378006870
 H         -4.2901014942        2.7394934685       -2.0576428955
 H         -5.8741405941        3.1335346389       -1.3816497229
 H         -6.1929875806        0.9107789540       -0.5613964802
 H         -5.4619009388        0.7192597890       -2.1501171913
 O         -3.4941101594       -0.3615806483       -1.5893448008
 C         -2.3864793725       -1.1601973281       -1.3698615796
 O         -1.8900366315       -1.6508298259       -2.4008795840
 O         -2.1966478316       -0.7920255292        2.2213531274
 C         -0.7382169147       -2.1930837008        0.2151740079
 C          0.4715005527       -1.6140929516       -0.4770846522
 C          1.3554572247       -2.3685966815       -1.2364105007
 C          2.4417021399       -1.7682800504       -1.8509343820
 C          2.6763783976       -0.4130833137       -1.7152048399
 C          1.8099291089        0.3476232666       -0.9391855703
 C          0.7254346965       -0.2561060002       -0.3226053991
 H          0.0504224477        0.3397312241        0.2794745067
 N          2.0465843591        1.7226988492       -0.7784377347
 S          3.6147865998        2.2264025327       -0.4864677514
 O          3.4826338360        3.4675790284        0.2438639038
 O          4.3401239455        2.3036053820       -1.7300220225
 C          4.3288317947        0.9621817595        0.5506612233
 C          3.7289573372        0.7038581228        1.7673736282
 C          4.2497136625       -0.2957376811        2.5725889284
 C          5.3562614673       -1.0164851739        2.1495712709
 C          5.9506973920       -0.7411488306        0.9281451510
 C          5.4326301837        0.2563890553        0.1176155441
 H          5.8611629973        0.5013904354       -0.8404910789
 H          6.8121785371       -1.3016773532        0.6029817343
 H          5.7564982854       -1.7965711059        2.7776442450
 H          3.7880045398       -0.5104000806        3.5230823383
 H          2.8720912806        1.2843536172        2.0705592502
 H          1.3885991800        2.1872532642       -0.1708921916
 H          3.5056135935        0.0707746531       -2.2051081050
 H          3.1128250166       -2.3648658688       -2.4494505908
 H          1.1889992469       -3.4259381541       -1.3579872860
 H         -0.5716153223       -2.1299703111        1.3010201344
 C         -1.0185645056       -3.6348233111       -0.1513308732
 C         -0.3116289336       -4.7467770799        0.5628553025
 C         -1.7659948036       -4.4957657733        0.8210557752
 H         -2.4899812356       -5.1984740978        0.4366334793
 H         -2.0507957570       -4.0485900678        1.7623802235
 H         -0.0372921053       -5.6274486013        0.0020467580
 H          0.3928037525       -4.4768047627        1.3347660552
 H         -1.2431966085       -3.7598686296       -1.2045342252
