  62
        -98.94094850
 C         -2.0268528172       -1.3494151109        0.3542188805
 C         -2.4873578643       -0.6268854204       -0.7747754823
 C         -3.6713921245        0.2156636051       -0.5509702556
 C         -4.2506506846        0.2590821270        0.6616173641
 C         -5.4752406715        1.0502968921        1.0330624393
 C         -5.1837333252        2.5113799475        1.4018575896
 C         -4.8077734843        3.4162340948        0.2276460263
 H         -5.5606645480        3.3248943299       -0.5557788895
 H         -4.8404805288        4.4448355155        0.5924484632
 C         -3.4155106919        3.1459217353       -0.3606916747
 H         -2.8257388073        2.5629447056        0.3509335927
 H         -2.8906314336        4.0927972795       -0.5072792835
 C         -3.4249506230        2.4207693856       -1.7067219350
 H         -3.8948758713        3.0561091403       -2.4607562161
 H         -2.3887356377        2.2483141926       -2.0101765961
 C         -4.1460486243        1.0663707798       -1.6898551131
 H         -5.2243138407        1.2142532007       -1.6341255618
 H         -3.9102149477        0.5424638908       -2.6193069808
 H         -6.0841281758        2.9155303332        1.8701551764
 H         -4.3848294284        2.5311380101        2.1469722385
 H         -5.9126273872        0.5567742461        1.9037313488
 H         -6.1958374160        1.0166249586        0.2156263076
 O         -3.7751414406       -0.4465918177        1.7223423846
 C         -2.6373810898       -1.2300407821        1.6049463966
 O         -2.2702323876       -1.7588146721        2.6737673203
 O         -1.9515668047       -0.6714950733       -1.9108162469
 C         -0.7849767727       -2.2222743455        0.2873213050
 C          0.3116333844       -1.4908656748       -0.4487692317
 C          0.9685891521       -1.9952651324       -1.5623626663
 C          1.9609524688       -1.2569478515       -2.1847096784
 C          2.3223153952       -0.0096159101       -1.7119841294
 C          1.6780620478        0.5002760894       -0.5912413425
 C          0.6934459810       -0.2452570855        0.0369800444
 H          0.1889850295        0.1557621326        0.9084362275
 N          2.0422182077        1.7645157676       -0.0972700350
 S          3.6721423451        2.1204638551        0.0248953562
 O          3.7680427856        3.0900773935        1.0938947087
 O          4.1752126099        2.5473157531       -1.2569222034
 C          4.4525853248        0.5872977013        0.4983159776
 C          5.3944587716        0.0080950381       -0.3270917709
 C          5.9636862596       -1.1982800724        0.0485943624
 C          5.5794000868       -1.8033756771        1.2348489007
 C          4.6338746903       -1.2071485663        2.0554687774
 C          4.0636028258       -0.0000990616        1.6860059843
 H          3.3300592818        0.4914984804        2.3051480454
 H          4.3359013845       -1.6785847938        2.9783238700
 H          6.0189118294       -2.7447900557        1.5243086834
 H          6.7008830048       -1.6630743731       -0.5859193370
 H          5.6616528132        0.5115132744       -1.2418565562
 H          1.5399082605        2.0449489591        0.7314707845
 H          3.0770242435        0.5856394042       -2.1999154152
 H          2.4542510587       -1.6559495459       -3.0577652933
 H          0.6853579028       -2.9542477329       -1.9629511155
 H         -0.4638090592       -2.3360311927        1.3362549599
 C         -1.0355593517       -3.6274266692       -0.2394557135
 C         -2.3796025221       -4.2761820288       -0.1000581056
 C         -1.8706130684       -3.8907727002       -1.4549404812
 H         -1.5625914357       -4.6782479559       -2.1272866500
 H         -2.3118106430       -3.0410164400       -1.9507255510
 H         -2.4180899440       -5.3236401465        0.1591711313
 H         -3.1769391220       -3.6906717902        0.3347767441
 H         -0.1767152304       -4.2740223854       -0.0886729415
