  62
        -98.93839419
 C         -0.9421864566       -1.5471618679       -0.2623105769
 C         -1.9288170083       -1.2513181184        0.7129269768
 C         -2.9638474678       -0.2657353947        0.3524397775
 C         -2.9018022970        0.3271943677       -0.8527262326
 C         -3.8418727051        1.3345936989       -1.4658302370
 C         -4.3341552134        2.4738435826       -0.5604674000
 C         -5.8092640484        2.3513777735       -0.1747454052
 H         -6.1895602049        3.3451208882        0.0722988106
 H         -6.3689380066        1.9960417668       -1.0425059379
 C         -6.0935041246        1.4394003888        1.0175639688
 H         -5.7420686441        1.9208816966        1.9327505521
 H         -7.1778292200        1.3357477974        1.1023490074
 C         -5.4729650543        0.0429497473        0.9365317072
 H         -6.0529987830       -0.6173299204        1.5848028160
 H         -5.5563208011       -0.3532535139       -0.0749874558
 C         -4.0099317030       -0.0107489737        1.4028726810
 H         -3.7587973383        0.9061088821        1.9435198555
 H         -3.8836076299       -0.8260367975        2.1217763767
 H         -4.2058666070        3.4110959470       -1.1043606673
 H         -3.7176875925        2.5341586242        0.3343963247
 H         -3.2995263259        1.7465475448       -2.3200756515
 H         -4.6989929765        0.7959721553       -1.8782851646
 O         -1.9156208739        0.0396874014       -1.7462427442
 C         -0.9267336023       -0.8931201093       -1.4929868256
 O         -0.1218004492       -1.0236232741       -2.4382949972
 H          1.7457754841       -1.0535022575       -1.3473743811
 C          2.1182005373       -1.2122279015       -0.3463846779
 C          1.3875393649       -1.9955105082        0.5356703784
 C          1.8756583525       -2.1718366654        1.8249334658
 C          3.0641348483       -1.5803944272        2.2185054999
 C          3.7821887728       -0.7884767704        1.3397060892
 C          3.2958249785       -0.6008374117        0.0532722962
 N          3.9806029594        0.2698923110       -0.8300664479
 S          3.8717380283        1.8789196047       -0.3639944490
 O          4.1591939419        2.6594047580       -1.5456262901
 O          4.7424486056        2.0903895054        0.7643915480
 C          2.1711363896        2.0873508933        0.1353638866
 C          1.2238683070        2.3597635435       -0.8305960715
 C         -0.1081441529        2.4404191207       -0.4592969987
 C         -0.4681406158        2.2246471118        0.8613599349
 C          0.4935434733        1.9473675432        1.8195820561
 C          1.8284763831        1.8815413324        1.4567919295
 H          2.6069456104        1.6776004117        2.1732279688
 H          0.2050861799        1.7756882992        2.8440963336
 H         -1.5074288864        2.2691907821        1.1457592852
 H         -0.8604489726        2.6560812742       -1.2009443703
 H          1.5407421978        2.5122604531       -1.8502189649
 H          3.6434704439        0.1873825642       -1.7802625180
 H          4.6937364031       -0.2938394624        1.6340544312
 H          3.4309350368       -1.7299321111        3.2224635462
 H          1.3075817643       -2.7645558832        2.5267085240
 C          0.0793113993       -2.6120031093        0.1041302285
 H         -0.3479555446       -3.1303995816        0.9726720195
 C          0.3015838893       -3.6285686275       -0.9994488186
 C          0.8601048275       -4.9733073247       -0.6469880015
 C         -0.5729101071       -4.8428999410       -1.0661835680
 H         -0.8652342643       -5.2141479884       -2.0369941333
 H         -1.3372187712       -4.9506049592       -0.3103787280
 H          1.5560592228       -5.4365179757       -1.3293803043
 H          1.0670937361       -5.1720311498        0.3935798922
 H          0.6083160871       -3.1861396652       -1.9382882656
 O         -1.9557894512       -1.8075894731        1.8427820649
