  62
        -98.94336396
 C         -1.9224941754       -0.7575003031        0.5491115561
 C         -2.2281164795       -0.1772915342       -0.7050270218
 C         -2.6363691871        1.2319288634       -0.6701555897
 C         -2.6355410089        1.9000603269        0.4974397599
 C         -3.0014429741        3.3471558557        0.6892665145
 C         -4.5099659155        3.5953404647        0.8289841474
 C         -5.3165305746        3.4471261682       -0.4618223725
 H         -6.3092383296        3.8576219750       -0.2670427337
 H         -4.8602862019        4.0537253978       -1.2445365350
 C         -5.4683050684        2.0003007201       -0.9517310055
 H         -6.5081968810        1.8180312912       -1.2317491284
 H         -5.2306261975        1.3129820571       -0.1365492009
 C         -4.6045476560        1.6471779266       -2.1626239035
 H         -4.7632999245        0.5925200980       -2.4008038150
 H         -4.9210447146        2.2392681163       -3.0240468379
 C         -3.1001063387        1.8616095595       -1.9490871171
 H         -2.5626223881        1.3779117319       -2.7683945045
 H         -2.8652668057        2.9257699320       -1.9566410393
 H         -4.6385764805        4.6154725956        1.1979813296
 H         -4.9056121457        2.9152706037        1.5869071228
 H         -2.5101067681        3.6713217681        1.6093536844
 H         -2.6073586148        3.9366340171       -0.1390473500
 O         -2.2757792175        1.3204238533        1.6750183218
 C         -1.9283315883       -0.0194431773        1.7310739825
 O         -1.6502551643       -0.4313388814        2.8779353551
 H          0.6178216927       -0.6278055500        0.4235043433
 C          0.7372866173       -1.5205016280       -0.1748423660
 C         -0.2815867406       -2.4641567584       -0.2089079198
 C         -0.1027111911       -3.6071251379       -0.9777714094
 C          1.0651611932       -3.7893189960       -1.6982004882
 C          2.0765195536       -2.8482835318       -1.6608684893
 C          1.9060567028       -1.6985499039       -0.8957738498
 N          2.8983943150       -0.7051421034       -0.8718558248
 S          3.0209958756        0.3263820507        0.4532891618
 O          3.0133575196       -0.4333979796        1.6840935701
 O          2.0288021707        1.3661667215        0.3300789955
 C          4.6457856961        1.0034733085        0.1666864375
 C          4.7867574097        2.0404867921       -0.7360726508
 C          6.0538529689        2.5429790549       -0.9865700093
 C          7.1528895359        2.0029804851       -0.3349944157
 C          6.9957281739        0.9644732756        0.5704785109
 C          5.7313304951        0.4566269236        0.8247642280
 H          5.5584184115       -0.3436547320        1.5262313552
 H          7.8510042088        0.5489762193        1.0784266064
 H          8.1376551134        2.3961078733       -0.5320523841
 H          6.1790638777        3.3525614732       -1.6873045587
 H          3.9023165922        2.4325855335       -1.2108384770
 H          3.8001866332       -1.0314738324       -1.1903221974
 H          2.9858671018       -2.9919054021       -2.2239636892
 H          1.1906162117       -4.6805253032       -2.2941832238
 H         -0.8787188327       -4.3539977572       -1.0146050782
 C         -1.5161895145       -2.2165810177        0.6250016957
 H         -1.2516693181       -2.4041896638        1.6773217789
 C         -2.6859583368       -3.1032416476        0.2477794355
 C         -2.8519062221       -4.4522068605        0.8783303053
 C         -3.7709003421       -3.3305874482        1.2557081093
 H         -4.7947070593       -3.3616759044        0.9145077910
 H         -3.6473837783       -2.8691055459        2.2252128984
 H         -2.1106071794       -4.7615261065        1.5997550602
 H         -3.2497685027       -5.2566328381        0.2782675406
 H         -2.9819789226       -2.9782147373       -0.7874293894
 O         -2.1681002006       -0.8021533119       -1.7962569988
