  62
        -98.93224350
 C         -2.4637359725       -0.9420018202        0.0701918525
 C         -2.8161880986        0.2128343936        0.8100686300
 C         -3.9238503247        1.0401031181        0.2966754119
 C         -4.5331141009        0.6620872785       -0.8422980282
 C         -5.6969229008        1.3142759940       -1.5404081004
 C         -7.0381163755        1.0423427491       -0.8404703112
 C         -7.0088868995        1.1763996844        0.6797466145
 H         -7.9821023291        0.8547462375        1.0599924576
 H         -6.2610023170        0.4926601047        1.0854696934
 C         -6.7455659528        2.5859889411        1.2040486187
 H         -7.5155610434        3.2600406919        0.8220812834
 H         -6.8454685196        2.5509300021        2.2919899788
 C         -5.3735892465        3.1772168976        0.8731697400
 H         -5.2376055448        4.0581156253        1.5074316553
 H         -5.3344552777        3.5285041383       -0.1543814104
 C         -4.1955790887        2.2505615850        1.1569991100
 H         -4.2691241363        1.8802312283        2.1859859637
 H         -3.2720888913        2.8416535773        1.1306793022
 H         -7.3415557212        0.0197964252       -1.0780715534
 H         -7.7865471160        1.7205783701       -1.2537816196
 H         -5.5213687314        2.3813462818       -1.6401578329
 H         -5.7370335924        0.8884672364       -2.5454349415
 O         -4.1613808398       -0.4574634129       -1.5235309095
 C         -3.1250448332       -1.2796817833       -1.1105921985
 O         -2.9164900679       -2.2428854456       -1.8699766943
 O         -2.2298913447        0.5420586275        1.8777060316
 C         -1.3140409291       -1.7699308573        0.6153902944
 C         -0.0077976367       -1.2739274709        0.0495726459
 C          0.1950203221       -1.1848954321       -1.3245514795
 C          1.3964616914       -0.7174847708       -1.8242447395
 C          2.4119548639       -0.3191761469       -0.9715098386
 C          2.2187687225       -0.3993295902        0.4006734133
 C          1.0141423736       -0.8811928163        0.9002484586
 H          0.8619090636       -0.9306137539        1.9700251302
 N          3.2262819229        0.0317619237        1.2737899440
 S          4.8298946641       -0.3401690055        0.9672920183
 O          4.9572302759       -1.5967964681        0.2671668026
 O          5.4840146902       -0.2516109117        2.2540508163
 C          5.3904975156        0.9983346841       -0.0641476139
 C          6.0240487987        0.7270390973       -1.2608970420
 C          6.4611517348        1.7849902654       -2.0428879486
 C          6.2589616991        3.0883399502       -1.6158455780
 C          5.6237273169        3.3438979773       -0.4096112128
 C          5.1857100644        2.2908788788        0.3772504795
 H          4.6902400691        2.4486016012        1.3207474537
 H          5.4677158705        4.3588324801       -0.0809763667
 H          6.5981748101        3.9100529989       -2.2266299849
 H          6.9558767276        1.5885935040       -2.9805188503
 H          6.1549444176       -0.3019886869       -1.5561553938
 H          2.9987646033       -0.0549937647        2.2529782528
 H          3.3471312683        0.0488578339       -1.3602169629
 H          1.5433463350       -0.6565035398       -2.8920290236
 H         -0.5990448791       -1.4864555265       -1.9912773723
 H         -1.3055361364       -1.5547042440        1.6959702568
 C         -1.5122897977       -3.2702906197        0.4573986228
 C         -0.6784406374       -4.1352958249       -0.4344809434
 C         -0.5130916379       -4.2193755505        1.0513740808
 H         -0.8716290644       -5.0966648659        1.5681024725
 H          0.3845910938       -3.7930360492        1.4749463969
 H         -1.1755380643       -4.9420651449       -0.9509571319
 H          0.1109521333       -3.6753286086       -1.0074901554
 H         -2.5569367257       -3.5500313711        0.5473783055
