  62
        -98.94066540
 C         -1.0812118934       -1.4599026556        0.4529898075
 C         -2.0838550898       -1.2646867585       -0.5256294641
 C         -3.2552439406       -0.4875559895       -0.0961930349
 C         -3.3097288961        0.0038124137        1.1547994186
 C         -4.4501689328        0.7712963665        1.7699262042
 C         -4.7381747762        2.1595426016        1.1661266715
 C         -5.8163123878        2.1629314382        0.0751043324
 H         -6.4678706761        1.3008853618        0.2235453468
 H         -6.4381129910        3.0517054043        0.2003141866
 C         -5.3058399064        2.1754321783       -1.3689338290
 H         -6.1443979358        1.9245489831       -2.0222071043
 H         -4.9811928842        3.1870134391       -1.6234383700
 C         -4.1415749516        1.2325954288       -1.6743931557
 H         -3.2148612543        1.6487595955       -1.2696597089
 H         -4.0105293239        1.1918939800       -2.7576882074
 C         -4.3097344343       -0.1970774802       -1.1239459499
 H         -5.3050800162       -0.3334987503       -0.7037508034
 H         -4.1698875456       -0.9229021218       -1.9275265249
 H         -5.0804329064        2.7953151804        1.9844631905
 H         -3.8099467083        2.5915295889        0.7909211128
 H         -5.3534117061        0.1589757924        1.7177515910
 H         -4.1864820057        0.8898924093        2.8229216230
 O         -2.3075224002       -0.1825754914        2.0573537597
 C         -1.1645259891       -0.8882009151        1.7219992856
 O         -0.3071629073       -0.9427398927        2.6284555217
 O         -2.0130164215       -1.7211988652       -1.6965427471
 C          0.1758832301       -2.2359277963        0.1080198768
 C          0.9437461353       -1.5277185642       -0.9824316469
 C          1.5715012937       -2.1825520371       -2.0344097855
 C          2.2909778400       -1.4640019280       -2.9740263565
 C          2.4293679035       -0.0915682251       -2.8699470991
 C          1.8102022408        0.5711165339       -1.8166999102
 C          1.0658134193       -0.1479217918       -0.8965175827
 H          0.5646557174        0.3825943762       -0.1012463373
 N          1.9362130091        1.9593347517       -1.6446590751
 S          2.1144744638        2.5431190677       -0.0846016309
 O          0.8386955900        2.5804631677        0.5863417986
 O          2.7698226795        3.8231420974       -0.2549768182
 C          3.2327554694        1.3912825058        0.6953419363
 C          2.7961113951        0.5137537446        1.6661636806
 C          3.6947055745       -0.4052707826        2.1871449105
 C          5.0036059050       -0.4324699515        1.7334414801
 C          5.4297746061        0.4636085102        0.7644192446
 C          4.5372699092        1.3817537153        0.2379516868
 H          4.8322475524        2.1007152301       -0.5090749313
 H          6.4499508114        0.4453471605        0.4166279664
 H          5.6943563417       -1.1544296105        2.1395760675
 H          3.3542082854       -1.0972993604        2.9411723596
 H          1.7710513027        0.5422072045        2.0031133318
 H          2.5680730526        2.4115179495       -2.2892930315
 H          3.0019584066        0.4640570258       -3.5964132525
 H          2.7633720867       -1.9831502311       -3.7938596485
 H          1.4915249205       -3.2534118131       -2.1229254069
 H          0.8007827549       -2.2147424783        1.0140005474
 C         -0.1559937462       -3.6765425176       -0.2197617998
 C          0.8324363905       -4.7628471680        0.0774563585
 C         -0.4082848123       -4.6313725428        0.9070212096
 H         -1.1890274673       -5.3683304109        0.7937283237
 H         -0.3162689145       -4.2458492513        1.9123481435
 H          0.9030425596       -5.5965326635       -0.6047283636
 H          1.7718072335       -4.4754740323        0.5249699431
 H         -0.7754979413       -3.7699617908       -1.1038348766
