  62
        -98.93561839
 C         -1.8853622803       -0.4560571192        0.8563021358
 C         -2.8043059469       -1.1193889311        0.0072548031
 C         -4.1852896317       -0.6056487957        0.0204891550
 C         -4.4986144442        0.4347352754        0.8121714404
 C         -5.8346882486        1.1190848583        0.8710225055
 C         -6.0042990113        2.0510851746       -0.3458288510
 C         -7.1129806279        1.6320172197       -1.3117243770
 H         -6.9947801449        2.2247801751       -2.2213206864
 H         -8.0800455480        1.8894045344       -0.8744970202
 C         -7.1479120976        0.1468321091       -1.6848881386
 H         -7.7962910386        0.0543377192       -2.5588096565
 H         -7.6233294889       -0.4213644097       -0.8839813823
 C         -5.7929105920       -0.4968052285       -2.0061788963
 H         -5.0761663553        0.2574821726       -2.3316419061
 H         -5.9338763781       -1.1834528620       -2.8433150261
 C         -5.1833286584       -1.3154003420       -0.8526793393
 H         -4.6324618572       -2.1595011105       -1.2774583599
 H         -5.9847095599       -1.7248595789       -0.2316953973
 H         -5.0519172871        2.0949036174       -0.8785806445
 H         -6.2164734071        3.0643370295       -0.0010270065
 H         -6.6282102709        0.3755449503        0.8977516177
 H         -5.8635791063        1.6943370931        1.7967214184
 O         -3.5896717690        1.0462718422        1.6158455899
 C         -2.2744943603        0.6200223514        1.6595172881
 O         -1.5565040494        1.2664087825        2.4499199252
 H          1.5433417037        0.9941560602        1.1008656721
 C          1.3695593401        0.6549491118        0.0903991755
 C          0.3896678737       -0.2930929252       -0.1674807021
 C          0.1776036927       -0.6957786408       -1.4826993961
 C          0.9276156823       -0.1543506638       -2.5099531352
 C          1.9149488656        0.7796012286       -2.2471940157
 C          2.1364496241        1.1871068884       -0.9378640636
 N          3.1361036589        2.1326549998       -0.6355550109
 S          4.3165382383        1.7092793960        0.4737817942
 O          3.7355270045        1.5589927664        1.7826222053
 O          5.3391806191        2.7216359155        0.3339415119
 C          4.9271952941        0.1415878206       -0.1192494980
 C          6.0010926779        0.1309836605       -0.9880659755
 C          6.4293259731       -1.0786721877       -1.5103640334
 C          5.7710876239       -2.2500068684       -1.1669930438
 C          4.6926656232       -2.2221943915       -0.2961791817
 C          4.2643314632       -1.0163149423        0.2356930349
 H          3.4312879213       -0.9579787565        0.9166697134
 H          4.1784249540       -3.1313696127       -0.0291985723
 H          6.1005992409       -3.1910163366       -1.5784023359
 H          7.2702449507       -1.1039981945       -2.1845617028
 H          6.4850533292        1.0648921220       -1.2244324476
 H          3.5702600137        2.5387329234       -1.4528263698
 H          2.5042471948        1.1974929733       -3.0495281214
 H          0.7474951828       -0.4689586082       -3.5266043053
 H         -0.5940079613       -1.4204149204       -1.6910649936
 C         -0.4219454918       -0.8563664184        0.9748083719
 H         -0.0643850997       -0.3820962625        1.8992936058
 C         -0.2231090215       -2.3543661434        1.1019948611
 C          0.9885362036       -2.8685174789        1.8167466714
 C         -0.3651374845       -2.9954113572        2.4479347602
 H         -0.8209003656       -3.9721763405        2.5079579053
 H         -0.5999001562       -2.3527612105        3.2846882685
 H          1.6702813270       -2.1433443848        2.2369192564
 H          1.4661419993       -3.7620168666        1.4454958491
 H         -0.5826775050       -2.9128293723        0.2485322795
 O         -2.5124117944       -2.0949416037       -0.7330260820
