  62
        -98.94468736
 C         -2.6000257817       -0.8891317263        0.2534914807
 C         -2.5035691891       -0.0098887610       -0.8526508672
 C         -2.8498834037        1.3949915579       -0.5914240408
 C         -3.2698268412        1.7621594327        0.6316863814
 C         -3.6031936919        3.1653947269        1.0447992798
 C         -2.3813927442        3.8766395046        1.6421884047
 C         -1.1150977159        3.7655600746        0.7918673169
 H         -0.3378410650        4.3498655324        1.2898305224
 H         -0.7680439875        2.7290018683        0.7777873966
 C         -1.2707403688        4.2579591923       -0.6534375954
 H         -0.3960572592        4.8586829208       -0.9117586382
 H         -2.1469656050        4.9028900343       -0.7364400155
 C         -1.3589358582        3.1393696624       -1.6937322645
 H         -1.2127340490        3.5816985773       -2.6834958667
 H         -0.5407216353        2.4311668404       -1.5294997817
 C         -2.6839698465        2.3653159912       -1.7263777939
 H         -3.5194122263        3.0676468326       -1.7631958334
 H         -2.6981872795        1.7659366663       -2.6414463516
 H         -2.1722395979        3.4419783761        2.6222304547
 H         -2.6323387988        4.9297309795        1.7830152473
 H         -3.9702834624        3.7153078280        0.1805638990
 H         -4.3907159937        3.1223400370        1.7992413156
 O         -3.4037522340        0.8825019197        1.6559541053
 C         -3.0385339968       -0.4424812208        1.5048826320
 O         -3.1627640791       -1.1256589647        2.5409585556
 H         -0.3310449667       -1.4577173177       -1.5697081403
 C          0.1339834237       -1.8414531907       -0.6739062533
 C         -0.6571838193       -2.3767814768        0.3326728019
 C         -0.0355542871       -2.8381837742        1.4872748539
 C          1.3384875180       -2.7515371311        1.6323549101
 C          2.1174198512       -2.1776700868        0.6421833550
 C          1.5026035550       -1.7140780945       -0.5122234063
 N          2.2768667301       -1.0338685721       -1.4892024216
 S          2.5556004513        0.5677402121       -1.0251412509
 O          1.4653588479        1.0868728429       -0.2300551251
 O          2.8655788833        1.2863922094       -2.2421464726
 C          4.0245251449        0.4244423680       -0.0313414471
 C          5.1964145309        0.0452615484       -0.6568359379
 C          6.3448930606       -0.0982593549        0.1048131659
 C          6.3012541686        0.1375756135        1.4711699751
 C          5.1169647178        0.5183134009        2.0835286482
 C          3.9642230527        0.6634620007        1.3269392809
 H          3.0189706667        0.9514341168        1.7590986994
 H          5.0845787970        0.7000907906        3.1458145781
 H          7.1956675266        0.0237860970        2.0631014228
 H          7.2678988780       -0.3940773554       -0.3671680998
 H          5.1829281835       -0.1234510901       -1.7206751001
 H          1.8140345613       -1.0167058409       -2.3893052801
 H          3.1846698186       -2.0794401862        0.7585855943
 H          1.8053776037       -3.1157590660        2.5346898568
 H         -0.6429567591       -3.2405190115        2.2852101550
 C         -2.1616002798       -2.3482058657        0.2076460187
 H         -2.5862969077       -2.8173699683        1.1048546869
 C         -2.6555105988       -3.1029421509       -1.0091296282
 C         -2.6797106649       -4.6005400417       -0.9681938891
 C         -3.9638505703       -3.8286959235       -0.9378023251
 H         -4.5949103262       -3.8373606727       -1.8137295487
 H         -4.5103973457       -3.7827441115       -0.0069981008
 H         -2.4272975482       -5.1437225899       -1.8658195883
 H         -2.3563737614       -5.0805829361       -0.0569693232
 H         -2.4053559240       -2.6270521945       -1.9476856687
 O         -2.1504495142       -0.3534283957       -2.0143938637
