  62
        -98.94368952
 C          1.7122159503        0.5142083067       -0.3056381651
 C          2.9455534122        1.0314132404       -0.7684422118
 C          4.1226343810        0.6948342594        0.0399953013
 C          3.9755222743       -0.0361553761        1.1601774699
 C          5.0755927804       -0.4359971113        2.1059524046
 C          5.8419393015       -1.6949849033        1.6776041203
 C          6.7823222971       -1.5105320715        0.4859317734
 H          7.4386415668       -0.6595306447        0.6706821053
 H          7.4115854162       -2.4012669439        0.4333170476
 C          6.0689902771       -1.3303597278       -0.8613483971
 H          6.5445462027       -1.9643910251       -1.6130511998
 H          5.0321858945       -1.6624790326       -0.7721195915
 C          6.0843034254        0.1000554078       -1.4003967433
 H          7.1117549698        0.3983876442       -1.6205964632
 H          5.5202451171        0.1195720635       -2.3364214062
 C          5.4668942273        1.1376989496       -0.4537167157
 H          5.3268887635        2.0684405718       -1.0091521036
 H          6.1372474446        1.3283930308        0.3841502338
 H          6.4360621715       -2.0214539374        2.5342829297
 H          5.1202448054       -2.4837482957        1.4535695021
 H          5.7739591551        0.3925272612        2.2274945943
 H          4.5996744242       -0.6337935166        3.0687803106
 O          2.7675011331       -0.4919784534        1.5853217655
 C          1.6098555329       -0.2446903865        0.8604115678
 O          0.5806390823       -0.7417362732        1.3534779070
 O          3.0557325587        1.7463943131       -1.8008560801
 C          0.4492288598        0.8091297208       -1.0947227324
 C         -0.5287855786        1.5588702743       -0.2253301202
 C         -0.1067006749        2.7320386578        0.3964520558
 C         -0.9597705222        3.4406064078        1.2188072999
 C         -2.2529834370        2.9976464011        1.4365408182
 C         -2.6858544172        1.8308052681        0.8187743822
 C         -1.8258953092        1.1231742248       -0.0112786377
 H         -2.1810678419        0.2260425261       -0.4873231967
 N         -3.9744506419        1.3415267493        1.0543768244
 S         -4.7974614572        0.4030873187       -0.0480226865
 O         -4.6093152430        0.8729775546       -1.4007705739
 O         -6.1620462659        0.4056734244        0.4354781272
 C         -4.1156190649       -1.2303771528        0.1382509077
 C         -3.8633156960       -1.9855119365       -0.9896471078
 C         -3.3497234254       -3.2636958091       -0.8412570512
 C         -3.1035582826       -3.7637408844        0.4279694946
 C         -3.3695624003       -2.9955833396        1.5509585392
 C         -3.8820565744       -1.7163439111        1.4087311393
 H         -4.0935417642       -1.0914926639        2.2602803667
 H         -3.1731828648       -3.3873303292        2.5359767783
 H         -2.6998213953       -4.7574564849        0.5424583328
 H         -3.1408965554       -3.8628615315       -1.7133934586
 H         -4.0644430360       -1.5523166112       -1.9569459364
 H         -4.5784160431        1.9284332035        1.6087669903
 H         -2.9194318636        3.5471043506        2.0837532806
 H         -0.6180676006        4.3473625388        1.6951522988
 H          0.9046231355        3.0767046075        0.2280970319
 H          0.7635297470        1.4776420638       -1.9101231035
 C         -0.1115691015       -0.4618898416       -1.6961610550
 C         -0.9509332365       -0.3986673657       -2.9357045044
 C          0.4404025575       -0.9509501379       -3.0004181850
 H          0.5676375105       -2.0137829658       -3.1403739738
 H          1.2081233485       -0.3535131169       -3.4702323835
 H         -1.7801906552       -1.0824306821       -3.0320797068
 H         -1.1364594709        0.5745168159       -3.3647125105
 H         -0.3590738884       -1.2062831453       -0.9471883512
