  62
        -98.93685793
 C         -2.4186888703       -1.1075929707       -0.1762677700
 C         -2.4442921295        0.1407199146        0.4941264649
 C         -3.7798207378        0.6379162627        0.8589401496
 C         -4.8697840377       -0.1079348018        0.6081954048
 C         -6.2921860158        0.2605100633        0.9317201795
 C         -6.9581751996        1.1546299986       -0.1233266471
 C         -6.4699173402        2.6036010434       -0.1514640860
 H         -6.5245130390        3.0239522956        0.8531532979
 H         -7.1668853414        3.1638784610       -0.7778000321
 C         -5.0514837071        2.7844483147       -0.7102261672
 H         -5.0420306713        3.6147306763       -1.4200226696
 H         -4.7600281677        1.8889556556       -1.2643218438
 C         -3.9870578642        3.0803093394        0.3465756890
 H         -4.1952480987        4.0439622772        0.8167373868
 H         -3.0176847178        3.1534803575       -0.1537880306
 C         -3.8746280902        2.0144499459        1.4445598437
 H         -4.7242816795        2.0824668086        2.1234231131
 H         -2.9569820561        2.1976990896        2.0089973143
 H         -8.0306520706        1.1594865637        0.0842111544
 H         -6.8123129435        0.7021106759       -1.1069626945
 H         -6.3319014909        0.7512162455        1.9044914769
 H         -6.8498719362       -0.6765529923        0.9908697822
 O         -4.7949763524       -1.3364284459        0.0292944792
 C         -3.5803125671       -1.8552081276       -0.3878856136
 O         -3.6628288992       -2.9833074994       -0.9141434850
 O         -1.4227459785        0.8155816459        0.7810591661
 C         -1.1207534385       -1.7281976474       -0.6623919999
 C         -0.0494457814       -1.6108973920        0.3931841271
 C         -0.2271693896       -2.2789293594        1.6022977530
 C          0.7298465457       -2.2081034049        2.5955298491
 C          1.8927823250       -1.4845050642        2.3980663067
 C          2.0756108741       -0.8076883449        1.1983436518
 C          1.1081896681       -0.8739871407        0.2055871722
 H          1.2675954787       -0.3220089482       -0.7053764573
 N          3.2291334104       -0.0371766174        0.9812538688
 S          3.8588318068        0.0637005273       -0.5789801534
 O          3.1555794915        1.0844500197       -1.3138703372
 O          3.8938970416       -1.2485353559       -1.1867496073
 C          5.5130600671        0.6236848924       -0.2167204708
 C          5.7006770673        1.9562189110        0.0999996739
 C          6.9768630733        2.3974419388        0.4108998862
 C          8.0384373551        1.5044980945        0.3998547423
 C          7.8350331962        0.1710382123        0.0783911982
 C          6.5605355360       -0.2774880852       -0.2318493753
 H          6.3555223623       -1.3028663457       -0.4944386227
 H          8.6627432339       -0.5196426271        0.0677241654
 H          9.0308948384        1.8511345808        0.6410311637
 H          7.1391141315        3.4338864673        0.6592625922
 H          4.8471513263        2.6140182517        0.0863752910
 H          3.9509280014       -0.2012290593        1.6692920328
 H          2.6442069524       -1.4321055566        3.1713768343
 H          0.5748497227       -2.7280364619        3.5291498369
 H         -1.1343984358       -2.8491965829        1.7532505544
 H         -1.3462029781       -2.8005032487       -0.7910425751
 C         -0.6662923709       -1.2149808808       -2.0210029340
 C         -1.6583563740       -0.8115006397       -3.0693662304
 C         -0.7935546972        0.2235035079       -2.4180977883
 H          0.0088425641        0.6672214507       -2.9901684042
 H         -1.2423602654        0.9000675955       -1.7079474541
 H         -1.4586998614       -1.0812922683       -4.0954479579
 H         -2.7052908779       -0.8445867021       -2.8041501929
 H          0.2196791646       -1.7368072676       -2.3732897774
