  62
        -98.93705817
 C         -2.4748004952       -1.4322530570        0.1410369719
 C         -2.6033881383       -0.4274961297       -0.8474034225
 C         -3.5002712607        0.6909988134       -0.5181681879
 C         -4.1435390315        0.7146282257        0.6619387525
 C         -5.1145400851        1.7611486005        1.1395547507
 C         -4.5294918279        3.1673183109        1.3751978507
 C         -4.6695818790        4.1188851643        0.1805794719
 H         -5.5078668200        3.7898689942       -0.4346869184
 H         -4.9245112318        5.1133093463        0.5523190612
 C         -3.4238140956        4.2785691022       -0.6965411569
 H         -2.7141843707        4.9397697218       -0.1937014335
 H         -3.7286207043        4.7685808130       -1.6238654475
 C         -2.6768329035        2.9896259636       -1.0422046720
 H         -2.0955557509        2.6568229091       -0.1775988648
 H         -1.9493064944        3.2169820797       -1.8248434862
 C         -3.5787534998        1.8256159471       -1.4980748442
 H         -4.6079622556        2.1601709531       -1.6170831312
 H         -3.2282838347        1.4383031597       -2.4567872355
 H         -5.0709697748        3.5982200477        2.2188033349
 H         -3.4843542893        3.0812164576        1.6727647533
 H         -5.9401396234        1.8263948950        0.4274942794
 H         -5.5138668067        1.3788747022        2.0810599100
 O         -4.0033736048       -0.2767629488        1.5826553843
 C         -3.1627546044       -1.3508839194        1.3568488993
 O         -3.1192126158       -2.1686541668        2.2973153717
 O         -2.0160393126       -0.4383182546       -1.9634544128
 C         -1.5642004855       -2.6435754144       -0.0078794784
 C         -0.1360930287       -2.2418136593        0.2749469019
 C          0.5117066881       -2.6742457354        1.4262705042
 C          1.8026621639       -2.2608456477        1.7053452362
 C          2.4699581884       -1.4036624015        0.8484200409
 C          1.8263947855       -0.9573698889       -0.2981162593
 C          0.5399475312       -1.3879186343       -0.5850168312
 H          0.0392985318       -1.0221983393       -1.4691272517
 N          2.4866704322       -0.0646807797       -1.1659055842
 S          3.0388584350        1.3679002680       -0.4802634600
 O          2.2456849662        1.7478308414        0.6672550208
 O          3.0955615519        2.3203487494       -1.5678319273
 C          4.6995948160        0.9710411095        0.0259811883
 C          5.5686766352        0.4803727601       -0.9289815745
 C          6.8656159980        0.1668882234       -0.5552414699
 C          7.2701801334        0.3510659894        0.7587075901
 C          6.3868270389        0.8484082240        1.7045617690
 C          5.0874209182        1.1629651633        1.3374284110
 H          4.3631753949        1.5449793274        2.0392975616
 H          6.7029413971        0.9911091442        2.7254296490
 H          8.2798491008        0.1052455848        1.0475731934
 H          7.5554018572       -0.2200538663       -1.2878499780
 H          5.2141183310        0.3550083016       -1.9383545684
 H          1.9475041622        0.1391102677       -1.9965218993
 H          3.4716129053       -1.0700657692        1.0658218675
 H          2.2930413167       -2.6053735916        2.6030528921
 H         -0.0136206017       -3.3214244181        2.1137522164
 H         -1.8764426484       -3.3450201220        0.7769907847
 C         -1.7018489540       -3.3349503340       -1.3497153660
 C         -1.2586189909       -4.7600781144       -1.4781544206
 C         -2.7185830323       -4.4231073643       -1.5094005365
 H         -3.2483269878       -4.4983841093       -2.4471281973
 H         -3.3198509061       -4.6751469150       -0.6477854807
 H         -0.7828520290       -5.0701143817       -2.3957362911
 H         -0.8699045784       -5.2436792448       -0.5947987602
 H         -1.5439734147       -2.6784166404       -2.1946466220
