  62
        -98.94509664
 C         -1.0315843014       -1.5003056284       -0.4394628017
 C         -2.2740077615       -1.6489781884        0.2305746081
 C         -3.3254623610       -0.6865276375       -0.1201673510
 C         -3.0629049005        0.2668145032       -1.0324622101
 C         -4.0465208099        1.3030578741       -1.4942872091
 C         -3.9736524893        2.5847162033       -0.6538426679
 C         -3.9668084995        2.3332681019        0.8533974619
 H         -3.0556327998        1.7933280111        1.1203661014
 H         -3.9263130090        3.3064758614        1.3474349528
 C         -5.1857482599        1.5553857820        1.3686695911
 H         -5.5541925397        2.0405974613        2.2749832215
 H         -5.9892917899        1.5943925731        0.6321320511
 C         -4.9023857407        0.0961369315        1.7293706297
 H         -4.0351842007        0.0430651004        2.3921382997
 H         -5.7620823209       -0.2894104186        2.2840385193
 C         -4.6632885011       -0.8488508575        0.5451024488
 H         -4.6840884716       -1.8736879079        0.9272255078
 H         -5.4710362210       -0.7388201064       -0.1817612211
 H         -3.0601243290        3.1187887431       -0.9202360074
 H         -4.8245926290        3.2164621140       -0.9155867273
 H         -3.8206454098        1.5467573250       -2.5338933689
 H         -5.0491409701        0.8816985446       -1.4434662896
 O         -1.8538284104        0.3987913731       -1.6319628099
 C         -0.8113286908       -0.4797661876       -1.3645066807
 O          0.2202409693       -0.2388382375       -2.0189739704
 O         -2.4997995020       -2.5632041591        1.0680655273
 C          0.0421186381       -2.5310731393       -0.1302740726
 C          1.0811098883       -1.9740368607        0.8128326479
 C          1.0490497281       -2.3293956519        2.1579235476
 C          1.9972953783       -1.8452074133        3.0400183281
 C          2.9920920988       -0.9924659633        2.5981843589
 C          3.0264092890       -0.6207895921        1.2581414993
 C          2.0748730088       -1.1096380108        0.3732779688
 H          2.1107282490       -0.8022993098       -0.6595387009
 N          4.0282276995        0.2410097378        0.7920047101
 S          3.7338644200        1.3254918292       -0.4409444088
 O          3.7849308797        0.6620980504       -1.7180900895
 O          4.7360518206        2.3547895685       -0.2401123678
 C          2.1242288004        2.0308003697       -0.1351327882
 C          1.3204385006        2.3499262911       -1.2088942779
 C          0.1014515109        2.9665103815       -0.9736510374
 C         -0.2904833990        3.2491120005        0.3244615729
 C          0.5284063008        2.9208027591        1.3937083426
 C          1.7507201905        2.3120042487        1.1644859420
 H          2.4062753103        2.0569826875        1.9810052518
 H          0.2180806509        3.1392221683        2.4030195828
 H         -1.2386142088        3.7299177308        0.5080639833
 H         -0.5373145990        3.2111717626       -1.8075489272
 H          1.6494855205        2.0943015219       -2.2026623282
 H          4.6300409296        0.6306635169        1.5024162305
 H          3.7393263889       -0.6171287144        3.2806807393
 H          1.9626083581       -2.1338532542        4.0793927478
 H          0.2653646178       -2.9860657219        2.5069039370
 H         -0.4878714324       -3.3332149295        0.4020802866
 C          0.6699619478       -3.1263101284       -1.3745674632
 C          1.3225836771       -4.4719532588       -1.2832591444
 C          0.0254530272       -4.3159438875       -2.0177496443
 H          0.0283429972       -4.3834890064       -3.0953887044
 H         -0.8708227930       -4.7076770074       -1.5587876847
 H          2.2207714671       -4.6475053087       -1.8553393146
 H          1.3050449168       -4.9726087597       -0.3269025049
 H          1.1196398982       -2.3931248980       -2.0316118825
