  62
        -98.94507362
 C          1.3056821401        1.4864221544        0.3987047423
 C          1.8207576421        0.4915530388        1.2674600840
 C          2.8425522067       -0.3971888852        0.7053147112
 C          3.2054297512       -0.2618466682       -0.5825922856
 C          4.2301517738       -1.0922600016       -1.3060532155
 C          3.6801116691       -2.4236198678       -1.8361982117
 C          3.4359027662       -3.4963909067       -0.7740108600
 H          3.2842298587       -4.4393879385       -1.3031276892
 H          4.3284568903       -3.6074295099       -0.1566295324
 C          2.2154357750       -3.2367437182        0.1202401975
 H          1.5542995027       -2.5153732992       -0.3681684898
 H          1.6403834561       -4.1607361776        0.2244354678
 C          2.5549844671       -2.7545808922        1.5312018054
 H          3.0888091007       -3.5443718104        2.0652042229
 H          1.6194689478       -2.5649582619        2.0634381824
 C          3.4009753198       -1.4760151327        1.5843019249
 H          3.3915657622       -1.1037586004        2.6119929229
 H          4.4302014505       -1.6967765282        1.3016635499
 H          4.4038985324       -2.8127800830       -2.5564882949
 H          2.7470852855       -2.2290159357       -2.3716519366
 H          5.0816175959       -1.2822293181       -0.6514761005
 H          4.5697753387       -0.4964593210       -2.1561232031
 O          2.6723264463        0.6876052727       -1.3940035210
 C          1.6913933087        1.5617147520       -0.9411984971
 O          1.2692270143        2.3378280564       -1.8189067231
 O          1.4367636504        0.3477724254        2.4592801235
 C          0.1979964338        2.3760774576        0.9329174490
 C         -1.0000207828        2.3294326574        0.0146752227
 C         -1.7830395764        3.4304242166       -0.3061132578
 C         -2.8806627463        3.2859063396       -1.1384912270
 C         -3.2249490879        2.0536303806       -1.6624399221
 C         -2.4430750759        0.9455323286       -1.3517820383
 C         -1.3555210422        1.0937763738       -0.5093908861
 H         -0.7379792594        0.2369187249       -0.2945434083
 N         -2.7303003009       -0.3152877050       -1.8830779322
 S         -2.1135684062       -1.7240663242       -1.2522604556
 O         -0.6865617382       -1.7937148801       -1.4476183121
 O         -2.8909234172       -2.7612436806       -1.8972059859
 C         -2.5135117353       -1.6804960052        0.4856392769
 C         -3.8483105001       -1.6431568066        0.8394956151
 C         -4.1853486018       -1.5783270188        2.1814018101
 C         -3.1869553774       -1.5454423770        3.1436722664
 C         -1.8520158297       -1.5905039836        2.7738056691
 C         -1.5109854492       -1.6619560751        1.4326811112
 H         -0.4802238655       -1.6916057234        1.1145208816
 H         -1.0684314184       -1.5541738293        3.5141874067
 H         -3.4485373960       -1.4853926320        4.1882933859
 H         -5.2226881856       -1.5480426673        2.4733216504
 H         -4.5967222128       -1.6766667650        0.0647829121
 H         -3.6105863392       -0.4216351893       -2.3607374929
 H         -4.0750323910        1.9490182196       -2.3186181230
 H         -3.4774715055        4.1506802161       -1.3860315484
 H         -1.5271634817        4.4048293991        0.0760332568
 H         -0.0986779559        1.8878872890        1.8780917991
 C          0.6297208185        3.7888510453        1.3005286340
 C          2.0755825248        4.1468233068        1.4671579980
 C          1.2944980729        4.7023419863        0.3161800142
 H          1.0350444012        5.7508980317        0.3322791662
 H          1.4869942449        4.3106944416       -0.6700189175
 H          2.3499857169        4.8085973138        2.2751779056
 H          2.8096827413        3.3811441355        1.2602565826
 H         -0.0542735407        4.2534858476        2.0039226875
