  62
        -98.93741984
 C          1.8166245199        0.1638496396       -0.2483325897
 C          2.9484365801        0.3882552398       -1.0623566594
 C          4.2633852400        0.3964327995       -0.3919027992
 C          4.3104051798        0.2024547392        0.9396217107
 C          5.5239866696        0.1333984889        1.8283824109
 C          6.2802879095       -1.1985366711        1.6987326807
 C          6.4742120898       -1.6913415808        0.2672089306
 H          6.9229686797       -2.6869761908        0.3168132404
 H          5.4985036398       -1.7995111206       -0.2097941196
 C          7.3721521799       -0.8178541906       -0.6056460690
 H          8.3573386799       -0.7387460208       -0.1405727389
 H          7.4970355701       -1.3340176203       -1.5610356692
 C          6.8556192101        0.5933684795       -0.8940434187
 H          7.4570759502        0.9992222097       -1.7128369785
 H          7.0113139300        1.2507750893       -0.0428844085
 C          5.4012179902        0.6574385897       -1.3495819590
 H          5.2565984903       -0.0354474600       -2.1864564092
 H          5.2103229203        1.6536195199       -1.7673399387
 H          5.7146840494       -1.9614177913        2.2390828604
 H          7.2517948595       -1.0916870413        2.1842490709
 H          6.1822461797        0.9735380689        1.6278356113
 H          5.1649805694        0.2301597886        2.8553793409
 O          3.1879208896       -0.0067045010        1.6862370305
 C          1.9234375597       -0.0310417807        1.1281124203
 O          1.0010779596       -0.2281277809        1.9410765501
 O          2.8716229103        0.5772347002       -2.3077326294
 C          0.4408834700        0.1408763899       -0.8855215499
 C         -0.4508731400        1.1999024698       -0.2855365898
 C          0.0731805900        2.4620996597       -0.0175055593
 C         -0.7161043500        3.4551965096        0.5277068708
 C         -2.0528230901        3.2195687196        0.7970732405
 C         -2.5917538101        1.9707952297        0.5171326401
 C         -1.7910786200        0.9690270698       -0.0156754901
 H         -2.2300160001        0.0075963999       -0.2241716704
 N         -3.9412813401        1.6975050497        0.7834161498
 S         -4.8443054700        0.8066877000       -0.3071359406
 O         -4.4040593598        1.0208640504       -1.6657168805
 O         -6.2174819900        1.1669856500       -0.0221843307
 C         -4.5950164602       -0.8922792901        0.1620573690
 C         -4.5383898101       -1.8553599098       -0.8257251513
 C         -4.3990002902       -3.1852741299       -0.4597970716
 C         -4.3187632705       -3.5267237703        0.8812463883
 C         -4.3788475606       -2.5472703806        1.8610971686
 C         -4.5231592804       -1.2166742205        1.5022485289
 H         -4.5709301405       -0.4315132607        2.2380160191
 H         -4.3128550507       -2.8161954409        2.9031041185
 H         -4.2075240906       -4.5616498304        1.1641458280
 H         -4.3523945501       -3.9480436697       -1.2210223218
 H         -4.5927821499       -1.5443795995       -1.8569316712
 H         -4.4673680402        2.4749639096        1.1550439699
 H         -2.6727142701        3.9953135495        1.2205302706
 H         -0.2903108200        4.4248313495        0.7385245511
 H          1.1149336901        2.6530610897       -0.2368869291
 H          0.6032482302        0.3970443402       -1.9439675798
 C         -0.1437609900       -1.2544191201       -0.8072114604
 C         -1.0670272699       -1.7556489897       -1.8757683707
 C          0.3296095801       -2.2898297698       -1.7814858806
 H          0.4733541999       -3.3007535799       -1.4312927709
 H          1.0501225102       -1.9772434197       -2.5233027404
 H         -1.8818569300       -2.4016321798       -1.5858390110
 H         -1.3046811697       -1.0845681095       -2.6877557805
 H         -0.3226658402       -1.5708538904        0.2145168895
