  62
        -98.93557687
 C          1.8377772290        1.0512166500        0.1342455901
 C          2.3695440192       -0.0714905798       -0.5387555600
 C          3.8053085393       -0.3458200796       -0.3294543999
 C          4.5215852691        0.4773623304        0.4570937303
 C          5.9832193991        0.4043860205        0.8203089204
 C          6.9624358392        0.0881112608       -0.3205612596
 C          7.5842671394       -1.3056861991       -0.2189901597
 H          8.5331518894       -1.3055253289       -0.7600657996
 H          7.8080954393       -1.5108657192        0.8299688403
 C          6.7311825696       -2.4400763791       -0.7843013500
 H          6.7192617997       -2.3745098390       -1.8744979400
 H          7.2181836297       -3.3821825191       -0.5215022801
 C          5.2842373896       -2.4814255494       -0.2883487801
 H          5.2387396594       -2.2598497196        0.7773333199
 H          4.9167404097       -3.5019718994       -0.4161112303
 C          4.3415600695       -1.5462397694       -1.0605659400
 H          4.8231898495       -1.2114829492       -1.9840159700
 H          3.4495306096       -2.0995671995       -1.3710912502
 H          6.4653875493        0.2121526509       -1.2813808396
 H          7.7703679091        0.8203510710       -0.2781335194
 H          6.2168417289        1.3814375005        1.2493902605
 H          6.1041545591       -0.3250007796        1.6251267203
 O          3.9613411189        1.5472818602        1.0916450304
 C          2.6213856688        1.8560183800        0.9603029603
 O          2.2519698386        2.8510144899        1.6152852904
 H         -1.5079919707       -0.1241691102       -1.3438927304
 C         -1.3894480707       -0.4049797104       -0.3092582304
 C         -0.4777612809        0.2636464996        0.4908987898
 C         -0.3488083210       -0.1297600905        1.8206336597
 C         -1.1068062108       -1.1655912207        2.3320001695
 C         -2.0142540107       -1.8341235907        1.5273219593
 C         -2.1481737906       -1.4503363206        0.2016523794
 N         -3.1017354104       -2.1069623606       -0.6110533208
 S         -4.6944694805       -1.7818250709       -0.1979962609
 O         -4.9882856006       -2.4056750711        1.0661343890
 O         -5.4916681204       -2.2068490308       -1.3258439210
 C         -4.7365552808       -0.0059172009       -0.0342881806
 C         -4.4477248810        0.5627971490        1.1899038695
 C         -4.3724504012        1.9431078090        1.2847916797
 C         -4.5838959312        2.7257527091        0.1602209798
 C         -4.8767588910        2.1392326492       -1.0616676303
 C         -4.9467620408        0.7595271292       -1.1640162906
 H         -5.1732145107        0.2638221693       -2.0944592306
 H         -5.0421353710        2.7525772393       -1.9327958403
 H         -4.5202324014        3.8000454391        0.2366428899
 H         -4.1421659014        2.4018305289        2.2330145098
 H         -4.2911649710       -0.0791741911        2.0411074294
 H         -2.9693972004       -1.9217041904       -1.5958974708
 H         -2.6270742806       -2.6346821509        1.9089735092
 H         -0.9921521009       -1.4567201408        3.3652820195
 H          0.3602625189        0.3925788495        2.4488702099
 C          0.3684928090        1.4080971698       -0.0087246400
 H          0.2021514088        2.2649537197        0.6591157001
 C          0.0528010091        1.8297602600       -1.4281303399
 C         -1.1727848910        2.6473901099       -1.7041080499
 C          0.1850374289        3.2736559201       -1.8036028197
 H          0.5714555189        3.5180435203       -2.7817225197
 H          0.4926043487        3.9615873500       -1.0296894296
 H         -1.7200980009        2.4656533099       -2.6166902700
 H         -1.7959856012        2.9092063796       -0.8625204400
 H          0.3555694992        1.0927480001       -2.1629828700
 O          1.6824289194       -0.8182354198       -1.2846803602
