  62
        -98.94153333
 C         -1.3181028107       -1.5737496599       -0.1621542781
 C         -2.4668014506       -1.1886812094        0.5612898718
 C         -3.1239954607        0.0623752702        0.1428191610
 C         -2.6153848409        0.7521923095       -0.8943210495
 C         -3.0752287110        2.0642477191       -1.4790240904
 C         -4.5884559010        2.2807149790       -1.6285715803
 C         -5.1614883409        3.2933357997       -0.6351549709
 H         -4.4447444209        4.1093398798       -0.5207032316
 H         -6.0754801310        3.7177123694       -1.0566192110
 C         -5.5067602007        2.7311471806        0.7425496196
 H         -5.7671673906        3.5734217411        1.3878108290
 H         -6.3914657507        2.0956636805        0.6633201802
 C         -4.3941624605        1.9251562211        1.4154170800
 H         -4.5824194304        1.9257544618        2.4914622300
 H         -3.4261382006        2.4042111410        1.2645852395
 C         -4.3291363206        0.4624132108        0.9492827310
 H         -4.3116450204       -0.2001631286        1.8203282414
 H         -5.2344927007        0.2065064104        0.3918265213
 H         -5.1098447810        1.3287280390       -1.5454915895
 H         -4.7686389412        2.6615607283       -2.6352038805
 H         -2.5951261912        2.1182753885       -2.4591422605
 H         -2.6383584509        2.8674600695       -0.8787382410
 O         -1.5150881910        0.3302854691       -1.5783758194
 C         -0.8220153509       -0.8069453106       -1.2139544287
 O          0.1944935990       -1.0345256711       -1.8993393487
 O         -2.9198013704       -1.8566055588        1.5325894723
 C         -0.5391646806       -2.8033187096        0.2666848226
 C          0.8860931894       -2.4147165094        0.5763448921
 C          1.9860690094       -3.1827987596        0.2153281225
 C          3.2699538294       -2.7490213594        0.4994120719
 C          3.4858342795       -1.5344193389        1.1243111011
 C          2.3909587495       -0.7652433087        1.5001030807
 C          1.1077632795       -1.2227794589        1.2547811512
 H          0.2700110295       -0.6112146587        1.5571511109
 N          2.5453203096        0.4973762417        2.1133510598
 S          2.0215309294        1.8204629211        1.2238588990
 O          2.3466845396        2.9724029617        2.0385687981
 O          0.6348793294        1.6623722908        0.8696715393
 C          3.0677738592        1.8090210101       -0.2211997412
 C          4.1971644392        2.6061342001       -0.2183133819
 C          5.0625247390        2.5504931994       -1.2982063720
 C          4.7909945589        1.6925416487       -2.3537431914
 C          3.6562150689        0.8968476987       -2.3385923407
 C          2.7815368691        0.9500081194       -1.2631746605
 H          1.8897350091        0.3422770294       -1.2390010600
 H          3.4364305088        0.2273402681       -3.1547046002
 H          5.4656578287        1.6440122181       -3.1938904015
 H          5.9438668790        3.1712614894       -1.3123004026
 H          4.3637944593        3.2584143907        0.6238436576
 H          3.4861624397        0.6769629220        2.4384771195
 H          4.4874971295       -1.1810321388        1.3177961807
 H          4.1142656294       -3.3558098196        0.2102080822
 H          1.8381191593       -4.1191251100       -0.2975370869
 H         -1.0181612305       -3.1485067290        1.1953384029
 C         -0.6509039008       -3.8961382303       -0.7764679866
 C         -0.6199483407       -5.3390986401       -0.3717033156
 C         -1.9034389908       -4.7168200404       -0.8300267358
 H         -2.2982790409       -4.9932590611       -1.7960919556
 H         -2.6638954606       -4.5038568099       -0.0928670259
 H         -0.1351753608       -6.0478678905       -1.0260200752
 H         -0.5141448605       -5.5619898293        0.6792200445
 H         -0.1952883309       -3.6158566110       -1.7196872769
