  62
        -98.94903320
 C         -0.8838640426       -1.3534978368        0.2394684418
 C         -1.4233048827       -0.2605963157        0.9558250059
 C         -2.2668404936        0.6605389990        0.1833155706
 C         -2.4161462473        0.4607541315       -1.1390013582
 C         -3.2570994799        1.3148780984       -2.0430763060
 C         -4.6874204905        0.7697942107       -2.1570328058
 C         -5.3358134837        0.4606262527       -0.8076010295
 H         -6.3520684998        0.1140719989       -1.0069355712
 H         -4.7994985406       -0.3669740468       -0.3377835214
 C         -5.3808581876        1.6505251017        0.1610169096
 H         -6.3731615336        1.6943651683        0.6146946205
 H         -5.2348274858        2.5807781404       -0.3891034134
 C         -4.3703915666        1.5737020070        1.3069101221
 H         -4.4488016703        0.6005549866        1.7977299043
 H         -4.6365265308        2.3354508079        2.0444381140
 C         -2.9020102221        1.8031346048        0.9255598606
 H         -2.8092174212        2.7329216599        0.3595101485
 H         -2.3329976001        1.9012388740        1.8545063075
 H         -5.2929768032        1.5002652061       -2.6967855275
 H         -4.6606069297       -0.1505004846       -2.7451172419
 H         -3.2743551004        2.3334278875       -1.6592118390
 H         -2.7948409679        1.3200945782       -3.0321342696
 O         -1.8499797323       -0.5787468126       -1.8020018848
 C         -1.0703967737       -1.5100175389       -1.1345513458
 O         -0.6195975110       -2.4182129181       -1.8591227448
 O         -1.2046276672       -0.0607591515        2.1816472335
 C          0.0184416094       -2.3355490726        0.9660952160
 C          1.3878415909       -2.2989753554        0.3340611663
 C          2.1159519641       -3.4304562902       -0.0076454846
 C          3.3405734283       -3.3061691316       -0.6417867558
 C          3.8524372873       -2.0625193243       -0.9622644527
 C          3.1382555917       -0.9232660752       -0.6070942292
 C          1.9354292267       -1.0507226769        0.0648468012
 H          1.3849001590       -0.1631029593        0.3409364763
 N          3.6204254788        0.3602405599       -0.9011533590
 S          2.5469059152        1.6015154431       -1.2264650265
 O          1.3590881659        1.1434171320       -1.9095027956
 O          3.3457948462        2.5795480278       -1.9377357632
 C          2.1417558784        2.2631950213        0.3750561594
 C          0.8406935708        2.6364707743        0.6447322144
 C          0.5459818304        3.1957974404        1.8778369787
 C          1.5515852920        3.3663937693        2.8160083036
 C          2.8538457293        2.9854164723        2.5299158524
 C          3.1566066285        2.4325098248        1.2963496718
 H          4.1561369020        2.1266419019        1.0363687892
 H          3.6324230118        3.1173368295        3.2639172529
 H          1.3158662922        3.7969202843        3.7764178217
 H         -0.4670073567        3.4891254937        2.1010154007
 H          0.0830882288        2.4660396189       -0.1054095927
 H          4.4347859068        0.3910002054       -1.4968626094
 H          4.7907341836       -1.9696049368       -1.4874458107
 H          3.8945910682       -4.1928991856       -0.9103789649
 H          1.7187945391       -4.4092698734        0.2055354598
 H          0.0990430762       -1.9542336390        1.9951079902
 C         -0.5998014001       -3.7167192124        1.0014086145
 C         -0.2831445072       -4.6577641857        2.1243590388
 C         -1.6361661403       -4.0198472471        2.0404149184
 H         -2.4812836410       -4.6315489728        1.7623576577
 H         -1.8775025290       -3.2348497152        2.7421230437
 H         -0.2012427242       -5.7117688628        1.9058631857
 H          0.3927784265       -4.3109132800        2.8910296166
 H         -0.7484335163       -4.1297082683        0.0098396241
