  62
        -98.94738576
 C         -2.5638219424       -0.1336537678       -0.4017160258
 C         -2.1710359395       -0.7035590327        0.8334950515
 C         -1.7292998701       -2.1043469302        0.7810244050
 C         -1.7054537793       -2.7439749565       -0.4021851594
 C         -1.2537541392       -4.1611673479       -0.6062709036
 C          0.2403502758       -4.2365786954       -0.9458639171
 C          1.1371163206       -3.4539300047        0.0137669823
 H          2.1712849638       -3.6344299210       -0.2903090404
 H          0.9572044176       -2.3829296146       -0.1118549937
 C          0.9661284223       -3.8254202749        1.4933605857
 H          1.9561877763       -3.9097425716        1.9460543229
 H          0.4839095586       -4.8005866696        1.5789655586
 C          0.1891445447       -2.7943831570        2.3146929991
 H          0.3448271267       -3.0141549948        3.3747140925
 H          0.5938715125       -1.7986104447        2.1183945820
 C         -1.3255227714       -2.7533784846        2.0746780821
 H         -1.7392728146       -3.7623602648        2.1450680683
 H         -1.7703842266       -2.1418177428        2.8653247085
 H          0.5384673210       -5.2871514904       -0.9491234441
 H          0.3890113410       -3.8353794136       -1.9512897095
 H         -1.8255857538       -4.5844947667       -1.4342905083
 H         -1.4608737069       -4.7335131097        0.2960759873
 O         -2.0780588483       -2.1587951053       -1.5706360998
 C         -2.4972541345       -0.8395279522       -1.6011855199
 O         -2.7922508357       -0.4185066467       -2.7402544546
 O         -2.2058302928       -0.0797612344        1.9269696863
 C         -3.0049688191        1.3178912308       -0.4601064911
 C         -1.8934362159        2.2082553125        0.0423543715
 C         -2.1040541650        3.3164623846        0.8529409242
 C         -1.0322856389        4.0763082763        1.2896373938
 C          0.2642896915        3.7417039163        0.9446858117
 C          0.4835299081        2.6438738634        0.1203781016
 C         -0.5932893622        1.9049585106       -0.3390375072
 H         -0.4114230596        1.0551791673       -0.9816717873
 N          1.7837567520        2.2672444033       -0.2697273518
 S          2.0920126589        0.6023217161       -0.2986685424
 O          1.6420189858        0.0643319456       -1.5591282206
 O          1.5660084106       -0.0139393955        0.8960537732
 C          3.8747206525        0.5987239218       -0.2603311772
 C          4.5335423837        0.2543080045        0.9042038251
 C          5.9195610657        0.2817519607        0.9230349912
 C          6.6181142615        0.6540230199       -0.2154039896
 C          5.9423583877        0.9956972155       -1.3778562620
 C          4.5572260208        0.9682803285       -1.4041706940
 H          3.9885835087        1.2153887216       -2.2855363137
 H          6.4887106186        1.2816695302       -2.2620726480
 H          7.6962587296        0.6754786649       -0.1979597127
 H          6.4471277757        0.0127891925        1.8238630055
 H          3.9466853808       -0.0333348203        1.7617981296
 H          2.4976106034        2.7534404416        0.2575088458
 H          1.0994633067        4.3211394847        1.3081586138
 H         -1.2089304001        4.9318489945        1.9238504963
 H         -3.1059447341        3.5783439488        1.1517679853
 H         -3.1662790191        1.5430936608       -1.5254852382
 C         -4.3115775942        1.5068444161        0.2827511518
 C         -5.2914997564        2.5501903512       -0.1607995094
 C         -5.5872860969        1.0992085714       -0.3889872612
 H         -6.3547623230        0.6263874383        0.2050111108
 H         -5.5123726956        0.7110162238       -1.3946998010
 H         -5.8619491657        3.0743539488        0.5910833520
 H         -5.0277717964        3.1520937841       -1.0173331016
 H         -4.2171214569        1.3056935258        1.3436385158
