  62
        -98.94890997
 C         -1.0162101592       -1.7077297799        0.2102106818
 C         -0.2055837592       -2.5736326905       -0.5587893076
 C          1.1953779409       -2.6883303098       -0.1342654078
 C          1.6230057210       -1.9772010788        0.9248433715
 C          3.0245480011       -2.0015264981        1.4616067213
 C          3.8921492208       -0.8982314385        0.8434288901
 C          3.8120790904       -0.8210164098       -0.6813170799
 H          2.8116314103       -0.4952504702       -0.9795419100
 H          4.5033811902       -0.0379878599       -1.0035773007
 C          4.1624168105       -2.1298697304       -1.4032714389
 H          4.8071347803       -1.8952064810       -2.2530749092
 H          4.7284337408       -2.7815236097       -0.7359529784
 C          2.9594756606       -2.8939672811       -1.9595060180
 H          3.3303594106       -3.6536745616       -2.6533160674
 H          2.3279514803       -2.2080249317       -2.5311125584
 C          2.0832587609       -3.6086212303       -0.9226702172
 H          1.4119191009       -4.2833134809       -1.4623289264
 H          2.7112421812       -4.2074151996       -0.2594087568
 H          4.9281704609       -1.0664890880        1.1442957801
 H          3.5663282907        0.0611651118        1.2483605994
 H          3.4626490812       -2.9777584582        1.2616442520
 H          2.9775374413       -1.8488650272        2.5412999411
 O          0.8207592610       -1.1368508284        1.6269114009
 C         -0.5133906491       -0.9718760589        1.2834939111
 O         -1.1323407391       -0.1636779484        1.9996624105
 O         -0.6374053193       -3.2291216914       -1.5472977569
 C         -2.4711319393       -1.5219298406       -0.1755046780
 C         -2.7734804897       -0.0671698608       -0.4390476892
 C         -4.0077118397        0.5102826092       -0.1642439595
 C         -4.2237459800        1.8539806089       -0.4171276506
 C         -3.2146954103        2.6538672887       -0.9222849715
 C         -1.9768486702        2.0835680387       -1.2024684913
 C         -1.7790473899        0.7295262089       -0.9888410601
 H         -0.8191131799        0.2981574888       -1.2273747100
 N         -0.9203012405        2.8642677684       -1.6974854822
 S          0.6785375397        2.5552298490       -1.3602523522
 O          1.3765287893        3.7007683387       -1.9071437634
 O          1.0759409498        1.2764107686       -1.8977768412
 C          0.9301509300        2.5584340106        0.4101644777
 C          2.2491039301        2.4382265212        0.8049247176
 C          2.5572717104        2.4583262424        2.1544900075
 C          1.5413272306        2.5934269330        3.0884175176
 C          0.2253233204        2.7175764424        2.6778001477
 C         -0.0889368498        2.7058901512        1.3267778778
 H         -1.1145476899        2.7848481107        1.0067881579
 H         -0.5683572394        2.8106709129        3.4009269978
 H          1.7774341008        2.5991508840        4.1409187275
 H          3.5838110405        2.3671636229        2.4736561174
 H          3.0041581900        2.3310792507        0.0415895175
 H         -1.0995794807        3.8559390283       -1.7507932230
 H         -3.3758844505        3.7070994285       -1.0942596024
 H         -5.1871920601        2.2898759989       -0.2010480408
 H         -4.7986142995       -0.0911737306        0.2530859312
 H         -2.5994386394       -2.0783029514       -1.1168477975
 C         -3.3782371990       -2.1304497598        0.8760900327
 C         -4.6721606990       -2.7785353804        0.4854475935
 C         -3.5172511787       -3.6213481798        0.9331317040
 H         -3.5669269584       -4.0991243290        1.8999697744
 H         -2.9819217287       -4.1947498403        0.1902304744
 H         -5.5189343288       -2.6808211600        1.1481039936
 H         -4.9293263292       -2.7931228514       -0.5630661665
 H         -3.3352146389       -1.5951325090        1.8180438722
