  62
        -98.94633767
 C          1.7906005347        0.7429328041        0.2174613477
 C          3.0863977006        1.0021127402        0.7242286649
 C          4.0122709527       -0.1381340277        0.7315135010
 C          3.5848576573       -1.3351580779        0.2891908140
 C          4.4380861633       -2.5658051804        0.1908195993
 C          5.1064086048       -2.6692265737       -1.1873193486
 C          5.8046896045       -1.3844859524       -1.6332588024
 H          5.0541325451       -0.6061645406       -1.7897459163
 H          6.2657408079       -1.5845250160       -2.6029718940
 C          6.8713652793       -0.8697866772       -0.6566203168
 H          7.7580716491       -0.5829825870       -1.2258875585
 H          7.1681115959       -1.6691453234        0.0233792950
 C          6.4484803742        0.3555150678        0.1558866231
 H          6.0628232452        1.1257796719       -0.5169167084
 H          7.3377069221        0.7634536562        0.6438657321
 C          5.4025709904        0.1024610907        1.2489805936
 H          5.3409325247        1.0048380775        1.8644508528
 H          5.7269908427       -0.7244798569        1.8838991115
 H          4.3406030681       -2.9161082982       -1.9262745892
 H          5.8287056880       -3.4871182426       -1.1602876826
 H          5.1953326637       -2.5402044182        0.9719343050
 H          3.8015934643       -3.4390950846        0.3422257867
 O          2.3248326524       -1.5510939629       -0.1672942425
 C          1.3992396166       -0.5195602172       -0.2257813492
 O          0.2876033547       -0.8525588738       -0.6766333411
 H         -1.8770396682        1.9101960993       -0.6276584106
 C         -1.7270112760        1.6005519364        0.3925169734
 C         -0.4539578084        1.5245051144        0.9340281016
 C         -0.3167592132        1.1175705378        2.2597822211
 C         -1.4224873425        0.7832270954        3.0160005641
 C         -2.6912513986        0.8399113820        2.4643197365
 C         -2.8404763317        1.2507512663        1.1463940541
 N         -4.1186234182        1.3459283060        0.5630654429
 S         -4.4556739388        0.4945089783       -0.8393432155
 O         -3.5748680838        0.9174166035       -1.8958487452
 O         -5.8695590932        0.7064851931       -1.0628767239
 C         -4.1759234053       -1.2137874166       -0.4082674598
 C         -2.8857725085       -1.7014964113       -0.3532153851
 C         -2.6899687976       -3.0145993089        0.0480386554
 C         -3.7733296614       -3.8106523917        0.3847474900
 C         -5.0628896373       -3.3033534542        0.3240374834
 C         -5.2674400149       -1.9918082679       -0.0708280032
 H         -6.2513337256       -1.5559207798       -0.1368828678
 H         -5.9052644777       -3.9239067241        0.5842616435
 H         -3.6107388795       -4.8310830366        0.6945951593
 H         -1.6820936115       -3.3962209939        0.0921837994
 H         -2.0479194663       -1.0762243629       -0.6189773389
 H         -4.8741912522        1.2091598796        1.2204436863
 H         -3.5574853982        0.5733306240        3.0508148342
 H         -1.2977601908        0.4698056876        4.0414620259
 H          0.6753377653        1.0666739554        2.6877958520
 C          0.7861951768        1.8789091684        0.1525794692
 H          1.2744145733        2.7293592215        0.6518648207
 C          0.5112663438        2.2569038425       -1.2876174960
 C          0.0950807522        3.6543420369       -1.6329061127
 C          1.4661044825        3.1695009396       -1.9945796664
 H          1.6901018342        2.9781136430       -3.0334259290
 H          2.3068365178        3.5421978155       -1.4275003048
 H          0.0051590941        4.3631525341       -0.8235873330
 H         -0.6278436299        3.7938235695       -2.4227743213
 H          0.0819598407        1.4431871728       -1.8628109540
 O          3.4479066484        2.1302400035        1.1548851817
