  62
        -98.94349793
 C         -0.9785335496       -1.2321188202       -0.6049393911
 C         -1.9532800596       -1.4709684109        0.3962572688
 C         -2.8192764795       -0.3419842212        0.7486351897
 C         -2.6186015596        0.8538086593        0.1671961506
 C         -3.3815455496        2.1189581390        0.4544123516
 C         -4.7016589096        2.2431333296       -0.3185948982
 C         -5.8252555696        1.3248616093        0.1633174011
 H         -5.9531537295        1.4439514984        1.2397323512
 H         -6.7456143296        1.6666274296       -0.3143553786
 C         -5.6171925996       -0.1588083305       -0.1710665000
 H         -4.8555305796       -0.2538576799       -0.9482324401
 H         -6.5427114496       -0.5740173302       -0.5760898703
 C         -5.2154455195       -1.0277501514        1.0208922093
 H         -5.0624491196       -2.0495213711        0.6643578985
 H         -6.0259998195       -1.0444249520        1.7529080293
 C         -3.9297766595       -0.5770718519        1.7273243396
 H         -4.1165633095        0.3231039376        2.3134760903
 H         -3.6105899695       -1.3729250124        2.4050837390
 H         -5.0399906696        3.2773163495       -0.2215034774
 H         -4.5051589397        2.0543172004       -1.3763448484
 H         -3.5740555195        2.1929686682        1.5254246717
 H         -2.7318683496        2.9472297893        0.1628023922
 O         -1.6552765196        1.0561021800       -0.7662215793
 C         -0.8169955696        0.0267090603       -1.1863974301
 O         -0.0060579597        0.3780261909       -2.0607858699
 O         -2.0945832895       -2.5871533214        0.9674174780
 C         -0.0564552996       -2.3900115999       -0.9437307820
 C          1.1348045704       -2.3825707306       -0.0181941220
 C          1.6021099404       -3.5511173910        0.5719640570
 C          2.6807112605       -3.5173006017        1.4385503170
 C          3.2936069805       -2.3180465419        1.7554544979
 C          2.8287002505       -1.1437508015        1.1750738288
 C          1.7752649804       -1.1876723508        0.2757447588
 H          1.4337355604       -0.2716893205       -0.1789848005
 N          3.4027258705        0.1018907483        1.4712801297
 S          2.3873287705        1.4273141881        1.6378675908
 O          3.1403366005        2.3507890875        2.4642073014
 O          1.0923272105        1.0435547178        2.1537573706
 C          2.2368670004        2.1271735594        0.0103379213
 C          3.2778975104        2.0108945801       -0.8879630588
 C          3.1512870803        2.6035264710       -2.1335389584
 C          1.9989188703        3.3034804512       -2.4541524478
 C          0.9663997303        3.4165342706       -1.5378015276
 C          1.0853571604        2.8244250596       -0.2918104181
 H          0.2967680504        2.8678422690        0.4438220620
 H          0.0637459003        3.9488756607       -1.7918542772
 H          1.8993314302        3.7569263220       -3.4277623674
 H          3.9487612603        2.5112422816       -2.8533587385
 H          4.1555417104        1.4511320599       -0.6095374093
 H          4.1168472605        0.0879530277        2.1853922197
 H          4.1175472505       -2.2874067725        2.4519193779
 H          3.0356975305       -4.4315504620        1.8893494063
 H          1.1022958504       -4.4859210909        0.3646682464
 H         -0.6396615796       -3.2975583201       -0.7182556826
 C          0.3381616603       -2.4515562388       -2.4119444621
 C          1.6962002703       -2.0709588584       -2.9113303018
 C          1.2840538503       -3.5105394184       -2.8965385029
 H          1.0723398902       -3.9994743577       -3.8353138733
 H          1.7375521003       -4.1513016690       -2.1557924834
 H          1.7532543402       -1.5504337777       -3.8544844914
 H          2.4254687303       -1.7391515790       -2.1891409716
 H         -0.4965420897       -2.2099376983       -3.0618386218
