  62
        -98.93718341
 C         -2.4449624970       -1.1818185235        0.0333489892
 C         -3.2375816080       -0.5512148810       -0.9581877742
 C         -4.5532303963       -0.0639086050       -0.5090150133
 C         -4.9214001558       -0.2236521712        0.7741176682
 C         -6.2071361652        0.2716986513        1.3688852473
 C         -6.0479565620        1.6860743838        1.9437830550
 C         -5.3814145060        2.6712879187        0.9836566391
 H         -5.3520410418        3.6421205320        1.4830382373
 H         -4.3462387714        2.3632751814        0.8194616045
 C         -6.0885173209        2.8142076563       -0.3713164710
 H         -6.1542358583        3.8751223942       -0.6215933739
 H         -7.1085996080        2.4353062700       -0.2987923764
 C         -5.3735123897        2.1253372371       -1.5350776425
 H         -5.8305029365        2.4700849222       -2.4664444394
 H         -4.3246104500        2.4311692892       -1.5525779871
 C         -5.4289474971        0.5924331989       -1.5395545255
 H         -6.4638032651        0.2612120483       -1.4320312675
 H         -5.0569065572        0.2502019812       -2.5096899407
 H         -7.0356383118        2.0578174239        2.2226654654
 H         -5.4395350089        1.6253211356        2.8491615437
 H         -6.4971758787       -0.4072121943        2.1726666805
 H         -6.9811225116        0.2642602609        0.6038250171
 O         -4.1296999966       -0.8251125840        1.6994945803
 C         -2.8819379522       -1.3110900596        1.3544976793
 O         -2.2608134210       -1.8415238321        2.2990757054
 O         -2.8875583331       -0.3942948442       -2.1545755986
 C         -1.0727831037       -1.7711827861       -0.2497957460
 C          0.0087460251       -0.7322673750       -0.1128583387
 C         -0.0449012509        0.4725384827       -0.8072851724
 C          0.9755541290        1.3984096613       -0.6865812294
 C          2.0679744345        1.1436847337        0.1253544949
 C          2.1242178337       -0.0495211149        0.8309398501
 C          1.0986753372       -0.9757196522        0.7099435976
 H          1.1488484853       -1.9024321719        1.2671779724
 N          3.2571938379       -0.3156815899        1.6410046596
 S          4.5849113509       -0.8568243827        0.7504415678
 O          4.1650213992       -1.7172453119       -0.3337419050
 O          5.4895324110       -1.4421106447        1.7150144589
 C          5.2811888298        0.6451366939        0.1030753650
 C          5.9060350145        1.5083492643        0.9820239164
 C          6.4366261783        2.6911085613        0.4926554221
 C          6.3329317385        2.9879105715       -0.8585037361
 C          5.7040345017        2.1092304465       -1.7274859988
 C          5.1708830246        0.9242194146       -1.2446944927
 H          4.6702360253        0.2127165008       -1.8814486705
 H          5.6244554933        2.3421647244       -2.7771303585
 H          6.7457469591        3.9096874543       -1.2370348868
 H          6.9275590222        3.3768704455        1.1641844561
 H          5.9676602616        1.2340835050        2.0220317481
 H          3.0638831922       -0.9933961048        2.3667003812
 H          2.8641192632        1.8630987106        0.2264711384
 H          0.9214578586        2.3278701835       -1.2325316560
 H         -0.8923406669        0.6678227451       -1.4470589447
 H         -0.9147882600       -2.5150554903        0.5479360167
 C         -1.0034662535       -2.5236894929       -1.5724479580
 C         -0.2569388623       -2.0442480275       -2.7767145247
 C          0.2736834896       -3.1972148214       -1.9823950419
 H          0.2241142742       -4.1894771681       -2.4050638748
 H          1.1511525386       -3.0215748601       -1.3757125491
 H         -0.6980854623       -2.2342857817       -3.7431040359
 H          0.2678689343       -1.1044652655       -2.7164992497
 H         -1.9209504817       -3.0703244759       -1.7674780510
