  62
        -98.94368408
 C          1.1183521451        1.6367150713       -0.4867027759
 C         -0.0385581082        1.3749921739       -1.2562870013
 C         -1.2665748352        2.0866442764       -0.8639101868
 C         -1.2340611496        2.9008169976        0.2048326379
 C         -2.3672017852        3.7067020997        0.7793273818
 C         -3.0713819348        2.9408435162        1.9115577542
 C         -4.2017560424        2.0230321552        1.4510680572
 H         -4.5366381413        1.4559171893        2.3227607075
 H         -5.0431308774        2.6290424171        1.1070886110
 C         -3.8131281384        1.0364082601        0.3469708754
 H         -2.8265462128        0.6251714151        0.5741401444
 H         -4.5225475223        0.2054590971        0.3779328286
 C         -3.8360948308        1.6599562361       -1.0576846467
 H         -4.3461874807        2.6219706652       -1.0057693776
 H         -4.4339098111        1.0296250183       -1.7197865773
 C         -2.4686680299        1.8411880877       -1.7343512057
 H         -2.2160187986        0.9388617954       -2.2999477879
 H         -2.5409412539        2.6553787766       -2.4636815006
 H         -2.3175956358        2.3498846773        2.4391950991
 H         -3.4831588636        3.6607145658        2.6222139969
 H         -1.9210601322        4.6119157682        1.1969698431
 H         -3.0704218420        3.9897755230        0.0012676507
 O         -0.1139764289        3.0758673797        0.9579288822
 C          1.0747833834        2.4341035657        0.6557427196
 O          1.9989037957        2.6661632242        1.4593800473
 O         -0.0443268518        0.5821830707       -2.2375067270
 C          2.4096911993        0.9151535070       -0.8399293426
 C          2.6612175415       -0.1186079446        0.2293710873
 C          3.7977469936       -0.1739685811        1.0233586635
 C          3.8908553185       -1.1141348623        2.0364682526
 C          2.8570723663       -1.9976585588        2.2870237643
 C          1.7208268533       -1.9581473937        1.4851260091
 C          1.6478648290       -1.0434620191        0.4499595554
 H          0.7670287237       -1.0117389401       -0.1734952964
 N          0.6504520189       -2.8402843220        1.6874670139
 S         -0.9031707623       -2.3712786231        1.2783541377
 O         -1.1339134349       -0.9680396668        1.5354505033
 O         -1.7548919071       -3.2874724992        2.0109375956
 C         -1.0366750886       -2.7390346286       -0.4588312961
 C         -0.2924079037       -3.7738758469       -0.9898679413
 C         -0.4293513516       -4.0734434964       -2.3355842533
 C         -1.3070010180       -3.3435414068       -3.1223560839
 C         -2.0533711189       -2.3144634822       -2.5716685197
 C         -1.9198646559       -2.0084261314       -1.2270920199
 H         -2.4724270517       -1.2058295875       -0.7669607972
 H         -2.7325860718       -1.7427486109       -3.1836835853
 H         -1.4079047637       -3.5744469441       -4.1711688566
 H          0.1518419209       -4.8725656123       -2.7671387140
 H          0.3863727892       -4.3164882366       -0.3532485910
 H          0.6848337402       -3.3870126999        2.5347847716
 H          2.9222476292       -2.7082760839        3.0967643853
 H          4.7756308929       -1.1454129260        2.6542738108
 H          4.6000480370        0.5273524127        0.8640897617
 H          2.2000760951        0.3874324668       -1.7817289963
 C          3.5544731240        1.8782251601       -1.0581610360
 C          4.7331019471        1.4574751930       -1.8830404748
 C          3.7628934392        2.4642777737       -2.4213879189
 H          4.0744744675        3.4952586601       -2.4958584951
 H          3.0859537429        2.1556414470       -3.2045175430
 H          5.7147710473        1.7979131499       -1.5906345422
 H          4.7174587963        0.4636486482       -2.3038035280
 H          3.7292176680        2.5239964966       -0.2057664457
