  62
        -98.94385770
 C         -1.7239932095       -1.3016492305       -0.0007036119
 C         -0.9811156390       -1.9197444092       -1.0339429023
 C          0.2517639212       -2.6260596691       -0.6372969227
 C          0.5731639108       -2.7065586704        0.6674526773
 C          1.7176898908       -3.3963881507        1.3811924870
 C          2.8614825413       -4.0198288995        0.5879573267
 C          3.8049121611       -3.0053302284       -0.0630797920
 H          4.4307447607       -2.5682862290        0.7188225687
 H          4.4605431715       -3.5343013775       -0.7575241623
 C          3.1291331609       -1.8493550879       -0.7970393810
 H          2.4846877805       -1.3001429489       -0.1080505006
 H          3.9047710508       -1.1500702173       -1.1227799900
 C          2.3159446915       -2.2315121669       -2.0314738516
 H          2.9611436219       -2.7264665759       -2.7610373119
 H          1.9526949613       -1.3010492566       -2.4794966008
 C          1.1003312517       -3.1327780376       -1.7671740829
 H          1.4041967420       -4.1642414077       -1.6066727039
 H          0.4665916120       -3.1122026469       -2.6591599231
 H          2.4682500418       -4.7153923188       -0.1477528642
 H          3.4507456113       -4.6096417300        1.2949504963
 H          2.1284858603       -2.6627998813        2.0820582479
 H          1.2504427109       -4.1777947415        1.9903290660
 O         -0.2105828997       -2.1438471417        1.6345350677
 C         -1.3290609399       -1.3812575318        1.3326439581
 O         -1.8655692604       -0.8530587730        2.3237564985
 O         -1.3346531486       -1.8854359780       -2.2437197224
 C         -2.9261555297       -0.4485611606       -0.3705075414
 C         -2.5700090703        0.9946362493       -0.1033460298
 C         -3.2557365809        1.8136029981        0.7830990109
 C         -2.8222177714        3.1085492480        1.0122443224
 C         -1.6972879714        3.6043784091        0.3796356332
 C         -1.0085316108        2.7960798703       -0.5195590574
 C         -1.4616171803        1.5102958304       -0.7666306189
 H         -0.9316849398        0.8916633813       -1.4767783794
 N          0.1291477792        3.2781348514       -1.1905338665
 S          1.5159635296        2.3559649221       -1.3331526971
 O          2.4964511394        3.2713669330       -1.8749476258
 O          1.2526942703        1.1725088428       -2.1076276084
 C          1.9704248592        1.9306352505        0.3374737426
 C          2.9382061587        2.6799875201        0.9777467737
 C          3.2590577484        2.3811172689        2.2919412635
 C          2.5994420886        1.3518536480        2.9469959122
 C          1.6259065691        0.6124740883        2.2932542111
 C          1.3102259794        0.8995332596        0.9745623513
 H          0.5590794298        0.3368762798        0.4416314505
 H          1.0969818592       -0.1821116124        2.7973965301
 H          2.8423606284        1.1218535870        3.9723823021
 H          4.0171982681        2.9524336986        2.8028689944
 H          3.4248540686        3.4698865709        0.4288980747
 H          0.3704760388        4.2316998012       -0.9611665855
 H         -1.3537319818        4.6091411090        0.5733198844
 H         -3.3615427919        3.7361086671        1.7052628328
 H         -4.1218761609        1.4367587472        1.3009757002
 H         -3.0480108293       -0.5731502295       -1.4564827416
 C         -4.1862120698       -0.9176811317        0.3215760377
 C         -5.5248939597       -0.5772020116       -0.2598193424
 C         -5.0156615892       -1.9848864114       -0.3248843237
 H         -5.4759261791       -2.7314107822        0.3048104154
 H         -4.6814310487       -2.3659174003       -1.2790726340
 H         -6.3397891700       -0.3581817426        0.4132277576
 H         -5.5401362096       -0.0017396107       -1.1731596518
 H         -4.0882729001       -0.9495070528        1.4001847677
