  62
        -98.94472481
 C         -1.8739214898       -0.7261111439        0.3969913741
 C         -2.4806175941       -0.1230791320       -0.7314138322
 C         -3.5588945174        0.8339641278       -0.4412364429
 C         -3.8712612850        1.1100443430        0.8379861367
 C         -4.9841095255        2.0180751223        1.2728757138
 C         -6.2925463700        1.2388684217        1.4674050403
 C         -6.6490214761        0.3262231205        0.2939801870
 H         -5.9044214626       -0.4697911245        0.2223185686
 H         -7.6043447337       -0.1476042332        0.5297018744
 C         -6.7541209959        1.0433287537       -1.0592323980
 H         -7.6525807497        0.6936522318       -1.5720847245
 H         -6.8683257354        2.1165573879       -0.9023052350
 C         -5.5764718263        0.7921031506       -2.0028915396
 H         -5.4006861730       -0.2828957223       -2.0912576932
 H         -5.8505503798        1.1613482019       -2.9947050667
 C         -4.2544973451        1.4658887471       -1.6138371086
 H         -4.4222207935        2.5301859069       -1.4357922042
 H         -3.5669022365        1.3636969838       -2.4587674601
 H         -6.1981311875        0.6222487905        2.3643127751
 H         -7.0991717365        1.9556581250        1.6316329967
 H         -4.7019423361        2.4794391314        2.2208918696
 H         -5.1213201586        2.7990865689        0.5274320155
 O         -3.2273121944        0.5516108087        1.8952015481
 C         -2.2200147311       -0.3802810976        1.7025303797
 O         -1.7093672820       -0.8121967370        2.7568810090
 O         -2.1436257581       -0.3699503705       -1.9179070264
 C         -0.7723649070       -1.7541554991        0.2066686793
 C          0.3957419819       -1.1239181726       -0.5129306127
 C          0.9997772142       -1.6764407037       -1.6337798011
 C          2.0621906254       -1.0327685895       -2.2461227433
 C          2.5522985362        0.1604247811       -1.7499124132
 C          1.9701629284        0.7093341913       -0.6133575881
 C          0.9057456179        0.0645872396       -0.0032630044
 H          0.4494804030        0.4956519847        0.8798758775
 N          2.4760419290        1.9083369795       -0.0849081243
 S          4.1366403832        2.0916268409        0.0036078363
 O          4.3598851272        2.9869060087        1.1174632415
 O          4.6439509505        2.5378791835       -1.2702024797
 C          4.7783678023        0.4665771225        0.3683037436
 C          5.6906138565       -0.1192162227       -0.4855626929
 C          6.1599496523       -1.3905156779       -0.1960309850
 C          5.7078465851       -2.0520424869        0.9349014231
 C          4.7940392462       -1.4484379247        1.7854746967
 C          4.3237096976       -0.1765175328        1.5025775378
 H          3.6153589034        0.3190774130        2.1474861703
 H          4.4425547619       -1.9636557139        2.6650951701
 H          6.0688083014       -3.0437612644        1.1571787597
 H          6.8721488250       -1.8611521705       -0.8543462273
 H          6.0111588155        0.4295658247       -1.3561303938
 H          2.0233133793        2.2090428973        0.7651176180
 H          3.3657347851        0.6819982943       -2.2275899277
 H          2.5127360392       -1.4654559578       -3.1260637323
 H          0.6316460382       -2.6046928606       -2.0376118728
 H         -0.4376402707       -2.0285618837        1.2176928845
 C         -1.3177750510       -2.9895903770       -0.4777333369
 C         -0.6792647952       -4.3241971581       -0.2411072249
 C         -2.0228162378       -4.0210447050        0.3491077107
 H         -2.8928054968       -4.5081356320       -0.0652745042
 H         -2.0888940580       -3.8438692591        1.4130781991
 H         -0.6281865249       -5.0246633864       -1.0608195046
 H          0.1689886330       -4.3610079504        0.4252989498
 H         -1.7195523538       -2.7783445011       -1.4618148487
