  62
        -98.94848461
 C          0.8304511105        1.2290490700        0.5661875104
 C          1.1994197500        0.5374439839       -0.6123340023
 C          2.1402568205       -0.5740783044       -0.4225069780
 C          2.4705967188       -0.9628844917        0.8217472473
 C          3.4099943883       -2.0827526607        1.1789638078
 C          4.8860196249       -1.6613537705        1.2031362774
 C          5.5096791199       -1.4152913591       -0.1714570161
 H          6.5887819531       -1.3396528808       -0.0236486257
 H          5.3286887908       -2.2797707264       -0.8107257424
 C          5.0171948105       -0.1413766330       -0.8726268712
 H          4.5390437534        0.5151698092       -0.1418429441
 H          5.8727364142        0.4034283141       -1.2782640533
 C          4.0469616512       -0.3863743370       -2.0288294788
 H          3.7397243936        0.5841386791       -2.4262485197
 H          4.5589999930       -0.9298535695       -2.8257699188
 C          2.7809738452       -1.1639628707       -1.6417781468
 H          2.0639816397       -1.0841269045       -2.4614206123
 H          3.0224292154       -2.2134014987       -1.4805111324
 H          5.4462777293       -2.4592340075        1.6962347162
 H          4.9826824533       -0.7614836066        1.8152101376
 H          3.1299698641       -2.4198769970        2.1794268811
 H          3.2844380327       -2.9111458909        0.4818388359
 O          1.9634428753       -0.3668999516        1.9358659326
 C          1.1925704510        0.7807572756        1.8354535116
 O          0.8903609898        1.2964781487        2.9322147104
 H         -1.6896385570        0.5707853172        1.1017241856
 C         -2.0739246849        1.1759323967        0.2926686769
 C         -1.3178509491        2.2398616245       -0.1841442186
 C         -1.8386524093        3.0216787427       -1.2071823335
 C         -3.0816562779        2.7340379683       -1.7435036940
 C         -3.8282603822        1.6702005212       -1.2728139116
 C         -3.3194789870        0.8882627324       -0.2410435179
 N         -4.0635715828       -0.1819093603        0.2756468865
 S         -3.3176559517       -1.5180135031        0.9244975772
 O         -4.3479535943       -2.5367501961        0.9096829709
 O         -2.7662702895       -1.2152450005        2.2221795670
 C         -2.0218472183       -2.0064277427       -0.2000450764
 C         -2.2175263554       -1.9096073331       -1.5630616711
 C         -1.2423569084       -2.3989626796       -2.4164119877
 C         -0.1036099265       -2.9931399111       -1.8974284908
 C          0.0799750604       -3.0799975269       -0.5269404762
 C         -0.8835745497       -2.5765841189        0.3309909819
 H         -0.7725885496       -2.6117436541        1.4038859570
 H          0.9645235462       -3.5412494856       -0.1190524408
 H          0.6454275330       -3.3901161819       -2.5638414416
 H         -1.3764803978       -2.3194086767       -3.4830537862
 H         -3.1166022099       -1.4568385260       -1.9476554952
 H         -4.9079649572       -0.4136859451       -0.2256599977
 H         -4.7980213784        1.4470050153       -1.6903531563
 H         -3.4734169439        3.3460390145       -2.5414583963
 H         -1.2714490631        3.8550448341       -1.5869227835
 C          0.0154433401        2.5053295147        0.4691768515
 H         -0.1783891503        2.8202730036        1.5056193521
 C          0.8295346105        3.5789897754       -0.2243930509
 C          0.6124016418        5.0246373370        0.1034178255
 C          1.8567160875        4.3297423893        0.5664652329
 H          2.7948754763        4.5768679027        0.0925439824
 H          1.9492042139        4.0861099396        1.6153885276
 H          0.6999879723        5.7531107593       -0.6884660988
 H         -0.1381196845        5.2626420310        0.8420503324
 H          1.0810308215        3.3157921750       -1.2453247138
 O          0.7881293331        0.8431238325       -1.7602761726
