  62
        -98.93926296
 C          2.5440035866        0.1754530955        0.0422676503
 C          2.2641206778        1.1834991857       -0.9059686410
 C          1.6365401431        2.4176485652       -0.4022218879
 C          1.3709424877        2.5287524395        0.9130226910
 C          0.7516810556        3.6499841440        1.7222584983
 C          0.1770605650        4.8811064474        1.0290042753
 C         -1.1379427026        4.6321890227        0.2865939798
 H         -1.9338388905        4.5274515688        1.0280022289
 H         -1.3633264146        5.5088554619       -0.3244418179
 C         -1.1800319101        3.3866904134       -0.5960688191
 H         -2.1972732801        3.2820417086       -0.9858574738
 H         -0.9853568177        2.4937585154        0.0022912590
 C         -0.2334505549        3.3966357755       -1.7937468899
 H         -0.4585957438        4.2513549999       -2.4362617185
 H         -0.4261790420        2.4832820365       -2.3656730894
 C          1.2625557662        3.4278723888       -1.4494908926
 H          1.8205690153        3.1524775613       -2.3499735770
 H          1.5768197248        4.4281292214       -1.1622345897
 H          0.9220527617        5.3171351275        0.3696895211
 H         -0.0223741943        5.6182889808        1.8113777281
 H          1.5329574073        3.9726218678        2.4192131792
 H         -0.0292914361        3.1807409170        2.3295928174
 O          1.7006990528        1.5431527122        1.7988395558
 C          2.2307338434        0.3332363999        1.3908537748
 O          2.3935231477       -0.4935305748        2.3094157486
 O          2.5250971906        1.0565222588       -2.1355554043
 C          3.0485666434       -1.1716756964       -0.4392723705
 C          1.9898451156       -2.2204882130       -0.1879520521
 C          2.2754623756       -3.5328098452        0.1639977464
 C          1.2486356327       -4.4386550829        0.3765520918
 C         -0.0751792692       -4.0560409552        0.2687936713
 C         -0.3711718687       -2.7412241232       -0.0792560216
 C          0.6579529506       -1.8541539614       -0.3370527766
 H          0.4147012243       -0.8467740431       -0.6416715121
 N         -1.7036818948       -2.2929289729       -0.1227279470
 S         -2.0714232448       -0.6753109960       -0.3612028469
 O         -1.8165474648       -0.2730869763       -1.7289595327
 O         -1.4363333037        0.0969596398        0.6761187914
 C         -3.8307754772       -0.7336883213       -0.0788556961
 C         -4.2854850499       -0.7814928229        1.2252988269
 C         -5.6494707819       -0.8542896329        1.4583323421
 C         -6.5322989200       -0.8788834839        0.3886069784
 C         -6.0620477503       -0.8279533050       -0.9147688004
 C         -4.6984294964       -0.7555845130       -1.1539144200
 H         -4.2866731591       -0.7042128046       -2.1489980927
 H         -6.7505896683       -0.8439687609       -1.7441702257
 H         -7.5934859803       -0.9353681169        0.5726927822
 H         -6.0180603184       -0.8909871175        2.4707922273
 H         -3.5608583169       -0.7504963271        2.0226930956
 H         -2.3635676046       -2.9321031917       -0.5389678385
 H         -0.8727407514       -4.7567559168        0.4585007389
 H          1.4856466781       -5.4571632118        0.6443951785
 H          3.3009667101       -3.8460160116        0.2745924906
 H          3.1729173599       -1.0659064950       -1.5284829765
 C          4.3891542748       -1.5139117242        0.1754874536
 C          5.3911662033       -2.3235422199       -0.5907969212
 C          5.6221445359       -0.8598565961       -0.3701691168
 H          6.3922944234       -0.5540508299        0.3216758053
 H          5.4953740107       -0.1884986402       -1.2071410010
 H          6.0087148831       -3.0245046345       -0.0497645498
 H          5.1192078399       -2.6465785538       -1.5844484979
 H          4.3281553775       -1.6512548834        1.2490261772
