  62
        -98.93492131
 C          1.1627814626        1.2339040245        0.7235698628
 C          1.5447730311        0.7570322537       -0.5528379682
 C          2.4614282931       -0.4066599940       -0.5807679393
 C          2.7502005528       -1.0380550826        0.5707524254
 C          3.6428632626       -2.2302138853        0.7991719262
 C          5.1355883769       -1.8777296378        0.7383053480
 C          5.5367532272       -1.0294327255       -0.4645789475
 H          4.9983449135       -0.0809933541       -0.4289445011
 H          6.6014873381       -0.8007650770       -0.3694263407
 C          5.3189513859       -1.6892780869       -1.8249029017
 H          5.7851404613       -1.0435617173       -2.5734398668
 H          5.8403958855       -2.6485370365       -1.8463671043
 C          3.8608026807       -1.9113181141       -2.2399956871
 H          3.8537729176       -2.0832018190       -3.3201749463
 H          3.4476177241       -2.8078420779       -1.7848932470
 C          2.9439900344       -0.7213024951       -1.9770006488
 H          3.4242792496        0.1900263756       -2.3528232738
 H          2.0385503737       -0.8304064597       -2.5857101353
 H          5.7082796055       -2.8069541982        0.7390243103
 H          5.3934716651       -1.3223175996        1.6435094988
 H          3.4152151626       -2.6008675743        1.8012762214
 H          3.4120477330       -3.0193344088        0.0896797317
 O          2.2368671564       -0.6254546304        1.7658095664
 C          1.4706413040        0.5137869045        1.8810761377
 O          1.1105949548        0.7732592233        3.0478164269
 H         -1.7982880652        1.0102512997        1.6254859520
 C         -1.9669278276        1.4858443296        0.6665670172
 C         -0.9808021044        2.3114065565        0.1406673959
 C         -1.2008973684        2.9095566252       -1.0927740065
 C         -2.3742507898        2.6688013998       -1.7869191738
 C         -3.3563087716        1.8485301612       -1.2596585221
 C         -3.1509930119        1.2614006988       -0.0187695732
 N         -4.1594517487        0.4318953539        0.5300546295
 S         -4.3119742463       -1.0759967209       -0.1789322289
 O         -4.5893321006       -0.9020552704       -1.5805143962
 O         -5.3098428509       -1.7773677171        0.5955846999
 C         -2.7199699119       -1.8475750688        0.0483472533
 C         -2.5124868758       -2.6279539270        1.1684789274
 C         -1.2592586941       -3.1789404298        1.3800345620
 C         -0.2391070585       -2.9371019139        0.4730638069
 C         -0.4634207483       -2.1497982766       -0.6452848477
 C         -1.7127429646       -1.5908855443       -0.8595888823
 H         -1.9161052162       -0.9672793860       -1.7154534376
 H          0.3327368826       -1.9588980270       -1.3459876584
 H          0.7384066731       -3.3616420704        0.6390954091
 H         -1.0793816968       -3.7906577264        2.2495371040
 H         -3.3363632882       -2.7986200372        1.8430812205
 H         -4.0644855187        0.3086409197        1.5291480045
 H         -4.2692469924        1.6410875456       -1.7937113456
 H         -2.5267938006        3.1268055165       -2.7523798438
 H         -0.4372877934        3.5388964781       -1.5192888652
 C          0.2993326152        2.4700705324        0.9195982085
 H          0.0401882301        2.4559500785        1.9903302682
 C          0.9940892364        3.7997486752        0.6698587423
 C          2.4149108559        4.0029680342        1.1042342556
 C          2.0675642590        4.0109596786       -0.3525580281
 H          2.0858210709        4.9563215785       -0.8754311656
 H          2.3648947251        3.1732620918       -0.9610185063
 H          2.6842940463        4.9343044668        1.5791331587
 H          2.9374552167        3.1429688799        1.4986874941
 H          0.3171459597        4.6331277697        0.8340110760
 O          1.1715588430        1.2664566339       -1.6393131903
