  62
        -98.94584893
 C         -2.1932428653       -0.1857540607       -0.1191180416
 C         -2.0312547466       -1.2351744839       -1.0609493694
 C         -1.4156291771       -2.4694751840       -0.5608302068
 C         -1.0738743578       -2.5666341441        0.7361888647
 C         -0.4749611653       -3.7707359684        1.4107077236
 C          1.0504278461       -3.8738352870        1.2764756433
 C          1.5544026004       -4.2541292607       -0.1157613549
 H          2.6131708000       -4.5014192733       -0.0181518170
 H          1.0396751847       -5.1524365039       -0.4585562299
 C          1.4052761768       -3.1435474095       -1.1646796854
 H          1.2536549719       -2.1813136303       -0.6693463004
 H          2.3310017762       -3.0482348933       -1.7376508643
 C          0.2766253053       -3.3614135128       -2.1731713565
 H          0.5018139183       -4.2318978575       -2.7941383040
 H          0.2396672230       -2.4832105855       -2.8241810521
 C         -1.1116154832       -3.5547659723       -1.5476558045
 H         -1.8567164817       -3.5007268523       -2.3454835878
 H         -1.1765587402       -4.5340011222       -1.0729877105
 H          1.4970963653       -2.9216044478        1.5712748731
 H          1.3880452398       -4.6361061823        1.9821978445
 H         -0.7221737972       -3.6875274205        2.4712110583
 H         -0.9374462396       -4.6761781791        1.0167076265
 O         -1.2651743932       -1.5491119542        1.6141359972
 C         -1.7616656967       -0.3150701338        1.2022750118
 O         -1.7643920586        0.5421884277        2.1034679170
 O         -2.3843976882       -1.1418200685       -2.2672040063
 C         -2.6984736298        1.1505914855       -0.6386626632
 C         -1.6718219481        2.2046744126       -0.3073963882
 C         -1.8912235117        3.2590027034        0.5679542315
 C         -0.8670559548        4.1437400686        0.8588111974
 C          0.3887422389        3.9877534679        0.3009303034
 C          0.6183520307        2.9365965923       -0.5812325709
 C         -0.4174439351        2.0701448238       -0.8914485427
 H         -0.2394369765        1.2594198678       -1.5839658225
 N          1.8796275646        2.7632934303       -1.1773974754
 S          2.6037713583        1.2662364088       -1.3288207867
 O          3.9161928213        1.5583592780       -1.8620168279
 O          1.7756069294        0.3890481531       -2.1144316472
 C          2.7740298447        0.6387127388        0.3313237902
 C          4.0109335379        0.6796715454        0.9449216263
 C          4.1302476826        0.2194846202        2.2463670453
 C          3.0132752405       -0.2568242309        2.9164063349
 C          1.7765651216       -0.2845320447        2.2900870523
 C          1.6556470363        0.1604929439        0.9832820402
 H          0.7050986676        0.1441300972        0.4724502072
 H          0.8959826004       -0.6381129456        2.8044570713
 H          3.1028716716       -0.6098530041        3.9316223305
 H          5.0906862901        0.2372171501        2.7357655062
 H          4.8504047774        1.0608026538        0.3863536444
 H          2.5645538450        3.4545829828       -0.9078637187
 H          1.1879845008        4.6715427203        0.5436065477
 H         -1.0450084294        4.9581969059        1.5444198979
 H         -2.8539315421        3.3712875060        1.0386439069
 H         -2.7046232787        1.0233995966       -1.7347039773
 C         -4.1183504282        1.5220525417       -0.2462819026
 C         -5.1541972522        0.4590716405       -0.0351996366
 C         -4.6885057995        1.2914253109        1.1197115325
 H         -5.3660527802        2.0335627559        1.5166174705
 H         -4.0529129317        0.8386210083        1.8628236831
 H         -6.1479166062        0.6217805747       -0.4247836983
 H         -4.8265927151       -0.5694213608       -0.0880459791
 H         -4.4500414967        2.4184561694       -0.7624170279
