  62
        -98.94343144
 C          1.9700536450        0.8601679393        0.0391815652
 C          2.2393996081       -0.1077572832        1.0339002555
 C          2.4347247117       -1.4828339641        0.5590085940
 C          2.3110247789       -1.7472727741       -0.7546812739
 C          2.5150996655       -3.0964613097       -1.3798679823
 C          3.9732644170       -3.2958343697       -1.8166055739
 C          4.9944228499       -2.9475179537       -0.7337667880
 H          4.9457333048       -1.8752332361       -0.5312455319
 H          5.9856639492       -3.1540556048       -1.1427416199
 C          4.8126339597       -3.7189698488        0.5807189612
 H          5.7893011777       -4.0713982824        0.9187299705
 H          4.1905546820       -4.5984520473        0.4112819914
 C          4.2183060416       -2.8928537352        1.7228831818
 H          4.7826699159       -1.9638582461        1.8359313700
 H          4.3330179024       -3.4608954421        2.6498980034
 C          2.7318579875       -2.5379372678        1.5874425542
 H          2.3978289265       -2.1237939158        2.5438097601
 H          2.1515275095       -3.4416861029        1.3879108353
 H          4.1633677973       -2.6603244621       -2.6844121212
 H          4.1024569957       -4.3360158627       -2.1208874572
 H          2.2274632038       -3.8662073998       -0.6661358904
 H          1.8661479439       -3.1674706224       -2.2544223453
 O          2.0305126615       -0.7951844558       -1.6800933439
 C          1.8424904997        0.5268309939       -1.3092742093
 O          1.5809149473        1.2943132648       -2.2556585265
 H         -0.4858556959        0.7771445347        0.4318417731
 C         -0.7035224381        1.7886272424        0.1201301847
 C          0.3219298142        2.7240551877        0.0642132847
 C          0.0122897185        4.0228913528       -0.3190185238
 C         -1.2886031282        4.3638020829       -0.6485188994
 C         -2.3010245570        3.4240082134       -0.6115459262
 C         -2.0003196337        2.1184949623       -0.2339285985
 N         -2.9981054283        1.1306447725       -0.2486475853
 S         -2.7529158727       -0.3860430446        0.4266716715
 O         -2.4782447952       -0.2804535517        1.8441688263
 O         -1.7843272811       -1.1035644403       -0.3649193688
 C         -4.3736466883       -1.0848618559        0.1746628214
 C         -4.7130149267       -1.5149653724       -1.0944157772
 C         -5.9794577449       -2.0344448082       -1.3098714444
 C         -6.8811294779       -2.1148747584       -0.2586458172
 C         -6.5256879361       -1.6820045487        1.0097742871
 C         -5.2606165525       -1.1601510832        1.2315726688
 H         -4.9361649376       -0.8181561741        2.2011484782
 H         -7.2270776603       -1.7488665082        1.8257084493
 H         -7.8658402292       -2.5204096921       -0.4290691685
 H         -6.2576404128       -2.3745434611       -2.2943033809
 H         -3.9752581090       -1.4403430639       -1.8766277837
 H         -3.9325082216        1.4831725435       -0.1002389524
 H         -3.3116714027        3.6882178909       -0.8810895101
 H         -1.5157261891        5.3772500250       -0.9426532988
 H          0.7901881475        4.7676637827       -0.3615501672
 C          1.7161047918        2.2954262430        0.4564899216
 H          1.7742287659        2.2951430636        1.5565316506
 C          2.7952015845        3.2093006263       -0.0889307367
 C          3.2505060173        4.4040575403        0.6932243057
 C          4.1421318361        3.2066887185        0.5679766518
 H          5.0206107562        3.2760416211       -0.0556920683
 H          4.2681277462        2.5687335388        1.4308892196
 H          2.7815265294        4.5851117498        1.6486824600
 H          3.5210594545        5.2997246157        0.1546090206
 H          2.7649818001        3.2822903178       -1.1703178548
 O          2.3110537743        0.1672246570        2.2645527747
