  62
        -98.93400095
 C         -1.7742492203       -0.0550967799        0.3294364803
 C         -2.7665604005       -0.7105163593       -0.4379331299
 C         -4.1040081905       -0.0826780091       -0.4572631591
 C         -4.3147196502        1.0640663405        0.2130666817
 C         -5.5425242801        1.9438455805        0.3256528025
 C         -6.9183310902        1.4235308109       -0.0832837675
 C         -7.4652896001        0.2989968804        0.7950415519
 H         -7.6933484298        0.7084650198        1.7824481923
 H         -8.4021373303       -0.0512294992        0.3561261620
 C         -6.5336081902       -0.8938130998        0.9946905809
 H         -5.6390369200       -0.5738209803        1.5331346609
 H         -7.0498783501       -1.6174905902        1.6314296106
 C         -6.1124820506       -1.6160966090       -0.2837417496
 H         -5.5947245106       -2.5322307593        0.0126227196
 H         -6.9990629307       -1.9027058686       -0.8525379396
 C         -5.1673435307       -0.8302548585       -1.2095874894
 H         -4.6440406210       -1.5496029682       -1.8460147700
 H         -5.7196665308       -0.1582008681       -1.8618431888
 H         -6.9128718105        1.1224529916       -1.1266716577
 H         -7.6062134301        2.2696473209       -0.0018848967
 H         -5.5789594898        2.2684188498        1.3705134828
 H         -5.3213946001        2.8390888009       -0.2662748369
 O         -3.3168778599        1.6750835299        0.9186235718
 C         -2.0473443600        1.1359597297        1.0045259111
 O         -1.2595344697        1.7979881692        1.7110038414
 H          1.9230201399        0.8821057895        0.6551211500
 C          1.6567607896        0.6637775502       -0.3681982501
 C          0.5087928395       -0.0633020395       -0.6473751403
 C          0.1623211091       -0.2894219986       -1.9770241303
 C          0.9506470589        0.2049113220       -2.9988578402
 C          2.0992079491        0.9245902417       -2.7182392200
 C          2.4500067294        1.1619607708       -1.3943892600
 N          3.5972589296        1.9029265405       -1.0888408398
 S          4.4678263399        1.6404639895        0.3050605498
 O          3.7913717702        2.2063648988        1.4450172004
 O          5.7753577099        2.1888637696        0.0129331799
 C          4.5925774398       -0.1306086006        0.4879753487
 C          4.9588140094       -0.8944950199       -0.6028444319
 C          5.0846246093       -2.2656960201       -0.4493892529
 C          4.8530601796       -2.8477219608        0.7873807368
 C          4.4923034099       -2.0671762315        1.8745951674
 C          4.3572798600       -0.6955444014        1.7248014583
 H          4.0654166403       -0.0532841419        2.5407935288
 H          4.3091347901       -2.5198245821        2.8359518172
 H          4.9500867495       -3.9151538709        0.9047918361
 H          5.3618276991       -2.8757826795       -1.2937342933
 H          5.1421338492       -0.4161854793       -1.5509118517
 H          4.1779305394        2.1579534910       -1.8729671598
 H          2.7129341389        1.3134286122       -3.5163841799
 H          0.6707582387        0.0254849527       -4.0258585703
 H         -0.7314169210       -0.8537192983       -2.1947181905
 C         -0.3533619103       -0.5770887101        0.4767073496
 H          0.0209261200       -0.1247320208        1.4090330398
 C         -0.2898456304       -2.0900774602        0.6452298486
 C          0.3944454593       -3.0066694897       -0.3204106222
 C          1.0128130896       -2.7353074906        1.0153541779
 H          1.0113294598       -3.5164055411        1.7601123573
 H          1.8855468897       -2.0996153707        1.0416417480
 H         -0.0607957209       -3.9688915995       -0.4978760027
 H          0.8607894391       -2.5776686791       -1.1926194620
 H         -1.1791896403       -2.4816799805        1.1274003086
 O         -2.5705435608       -1.7670583389       -1.0899798406
