  62
        -98.95112946
 C          1.9879486819        0.9215384908        0.1131971940
 C          1.5190068884        1.8465408633       -0.8515971333
 C          0.4729031680        2.7744589740       -0.4011053808
 C          0.0572785432        2.7269208150        0.8774651682
 C         -1.0227056297        3.5872995799        1.4652768216
 C         -2.3975296911        2.9116785826        1.3730905334
 C         -2.7385510294        2.3794476268       -0.0186965472
 H         -2.0810146728        1.5424363698       -0.2645020292
 H         -3.7532965329        1.9763034986        0.0259398325
 C         -2.6515285745        3.4209128528       -1.1427623995
 H         -3.5239095309        3.3073154602       -1.7897189858
 H         -2.6836687453        4.4284111741       -0.7250415848
 C         -1.4170038421        3.2753480404       -2.0353997249
 H         -1.3181158197        2.2306767373       -2.3447280123
 H         -1.5758727588        3.8712478019       -2.9386949090
 C         -0.0887739992        3.7297804412       -1.4148209794
 H         -0.2048269994        4.7277411345       -0.9856344396
 H          0.6523126577        3.7851995606       -2.2178772831
 H         -2.4229304715        2.0720557310        2.0713777086
 H         -3.1553137848        3.6349075460        1.6800756203
 H         -1.0403631511        4.5423878283        0.9438885437
 H         -0.7854842368        3.7618219988        2.5162182149
 O          0.5629753729        1.8564453049        1.7870802917
 C          1.5048486276        0.9030056136        1.4211161488
 O          1.8213016406        0.1234634938        2.3391634328
 O          1.9584957225        1.8928751593       -2.0325970002
 C          2.9801511890       -0.1469207025       -0.3164526446
 C          2.2846064477       -1.4858297647       -0.2499344346
 C          2.7455903881       -2.5686176160        0.4863356083
 C          2.0084033888       -3.7396241776        0.5388243253
 C          0.7982209224       -3.8491460222       -0.1211437360
 C          0.3327872801       -2.7747580702       -0.8724002442
 C          1.0897263630       -1.6168044094       -0.9488405548
 H          0.7286689352       -0.7895339632       -1.5429609846
 N         -0.8901099517       -2.8527425805       -1.5636156526
 S         -2.0184040025       -1.6231485562       -1.4607834107
 O         -3.1824323298       -2.1468802304       -2.1409503050
 O         -1.4696392366       -0.3991904334       -1.9827762778
 C         -2.3790839715       -1.4490557115        0.2763238085
 C         -3.5517985034       -1.9740558077        0.7827680874
 C         -3.8079996990       -1.8554615185        2.1393806215
 C         -2.8874648029       -1.2279099772        2.9656663203
 C         -1.7115112234       -0.7113948521        2.4434275532
 C         -1.4559850716       -0.8195874808        1.0861317897
 H         -0.5499186518       -0.4225468090        0.6559815551
 H         -0.9794082860       -0.2284460094        3.0726856464
 H         -3.0849500331       -1.1384157474        4.0222841364
 H         -4.7222319330       -2.2537438094        2.5490444740
 H         -4.2389013780       -2.4516067354        0.1031762990
 H         -1.3513380702       -3.7480932982       -1.4863093470
 H          0.2170860385       -4.7566965053       -0.0603244562
 H          2.3748336965       -4.5741326022        1.1169969542
 H          3.6746586498       -2.4932747283        1.0264365312
 H          3.2026804724        0.0704211894       -1.3716632584
 C          4.2636292491       -0.0747056404        0.4803970471
 C          5.5328268504       -0.6236390954       -0.0975327630
 C          5.3461384262        0.8576184198        0.0290929646
 H          5.9138763767        1.3887655658        0.7781795016
 H          5.1661304742        1.4309267106       -0.8688454166
 H          6.2339447350       -1.1091017524        0.5642069343
 H          5.4850915615       -1.0572122417       -1.0850942305
 H          4.1016653105       -0.1706986613        1.5475569439
