  62
        -98.93893904
 C          1.8390783692        0.8234832835        0.4411955610
 C          2.4989463217        0.2877207579       -0.6887333214
 C          3.6080013154       -0.6471292155       -0.4189827330
 C          3.9158886445       -0.9625969942        0.8527183788
 C          4.9588136207       -1.9015865838        1.4226509914
 C          6.1030689180       -2.4192323784        0.5547885901
 C          7.1032807321       -1.3527052351        0.1105050674
 H          7.6573298037       -1.0086193954        0.9875335711
 H          7.8174842305       -1.8189203976       -0.5717769818
 C          6.5003690763       -0.1236623134       -0.5653053101
 H          5.8681520468        0.4127871122        0.1451607390
 H          7.3218173038        0.5460143186       -0.8340048795
 C          5.6952977821       -0.4032702991       -1.8330508085
 H          6.3023199943       -0.9781782020       -2.5350066454
 H          5.4692283087        0.5601099686       -2.2977293064
 C          4.3598931325       -1.1385764041       -1.6220375086
 H          3.7204962411       -0.9342389936       -2.4859611076
 H          4.5035592402       -2.2153956697       -1.5716688401
 H          6.6467759128       -3.1486583703        1.1615321460
 H          5.7119849640       -2.9555247698       -0.3048207229
 H          5.3765661712       -1.3864002707        2.2935782910
 H          4.4038740834       -2.7626191474        1.8119165919
 O          3.2130314796       -0.4571954955        1.9098500245
 C          2.1739218941        0.4395568872        1.7374345359
 O          1.6301050708        0.8080196331        2.7992557046
 H         -0.4514429973       -0.4875934537        0.8627539333
 C         -0.9105528196       -0.0482988308       -0.0148737665
 C         -0.4320793253        1.1682532138       -0.4876299529
 C         -1.0386746027        1.7296917016       -1.6026277567
 C         -2.0739175129        1.0699401944       -2.2438735649
 C         -2.5340654787       -0.1489818371       -1.7827546964
 C         -1.9481265950       -0.7088194365       -0.6535276606
 N         -2.4245829447       -1.9350584155       -0.1604361732
 S         -4.0812437661       -2.1548817359       -0.0758294968
 O         -4.2841739268       -3.0907710530        1.0080894798
 O         -4.5817999955       -2.5684933208       -1.3631946621
 C         -4.7525762273       -0.5550828446        0.3431590866
 C         -5.6660116665        0.0486894122       -0.4967304491
 C         -6.1564372682        1.3014755148       -0.1645542424
 C         -5.7237378016        1.9270643968        0.9940886090
 C         -4.8080455186        1.3058145134        1.8298065784
 C         -4.3164982803        0.0522958650        1.5041395452
 H         -3.6062674452       -0.4566841065        2.1364657687
 H         -4.4713909648        1.7931756614        2.7308561430
 H         -6.1014194085        2.9044280097        1.2497335298
 H         -6.8700235245        1.7860727332       -0.8111299844
 H         -5.9713856814       -0.4721934918       -1.3895628092
 H         -1.9675989553       -2.2447664648        0.6841323787
 H         -3.3274569002       -0.6817390854       -2.2813491685
 H         -2.5270783168        1.5108122118       -3.1183826652
 H         -0.6942145499        2.6784874105       -1.9786197592
 C          0.7044171260        1.8170616335        0.2653263642
 H          0.3472661086        2.0473297641        1.2797872102
 C          1.2121588994        3.0924232177       -0.3729523883
 C          0.5161462288        4.3928336035       -0.1094556285
 C          1.8606469841        4.1262904097        0.4960307019
 H          2.7171947812        4.6594221625        0.1115078527
 H          1.9159012170        3.9208396262        1.5555244622
 H          0.4505130921        5.1147186881       -0.9093051975
 H         -0.3441243626        4.3756592527        0.5422207272
 H          1.6391255431        2.9265911947       -1.3549990495
 O          2.1808744685        0.5694836544       -1.8727175252
