  62
        -98.94355551
 C          2.0668152002        0.7013271679        0.5376220255
 C          2.4931389658        0.2582123311       -0.7377489744
 C          3.4750919153       -0.8364424029       -0.7378366675
 C          3.8598410343       -1.3780522492        0.4322668455
 C          4.8840217725       -2.4651254572        0.5797142867
 C          6.2900235606       -1.8809592833        0.7762588849
 C          6.6586727690       -0.8035120180       -0.2435320035
 H          6.0149499973        0.0659025492       -0.0914545320
 H          7.6814241609       -0.4878271386       -0.0267825454
 C          6.5619098815       -1.2556801062       -1.7073222680
 H          7.4510856957       -0.9109440262       -2.2391964010
 H          6.5560420032       -2.3450191862       -1.7588095179
 C          5.3502992449       -0.7060016674       -2.4626143393
 H          5.2999765324        0.3780262141       -2.3340656326
 H          5.4960839468       -0.9029894330       -3.5279189938
 C          3.9918485233       -1.3011515953       -2.0703691354
 H          3.2558998201       -0.9673657455       -2.8078307322
 H          4.0435396063       -2.3912973328       -2.1058898552
 H          7.0126077423       -2.6973882243        0.7241862063
 H          6.3453795548       -1.4412348947        1.7748190505
 H          4.6241894328       -3.0659360845        1.4531244081
 H          4.8628687568       -3.0993674876       -0.3044222045
 O          3.3835689503       -0.9621335590        1.6349733369
 C          2.4894495030        0.0933187193        1.7186971141
 O          2.1422584265        0.3834445372        2.8826713996
 H         -0.2208940162       -0.4774852517        0.7303250606
 C         -0.7485873713        0.2413064663        0.1132828841
 C         -0.2102806606        1.5108283859       -0.0596533217
 C         -0.9136553411        2.4233305746       -0.8356296265
 C         -2.1094878924        2.0650666853       -1.4341027598
 C         -2.6344628469        0.7968120656       -1.2660859809
 C         -1.9450498926       -0.1190734926       -0.4828658009
 N         -2.5025104838       -1.4095489980       -0.2848329381
 S         -3.6976905802       -1.4301769487        0.9073485826
 O         -3.3405301630       -0.5765855202        2.0201983516
 O         -3.9118334020       -2.8264643672        1.2189809224
 C         -5.1219764133       -0.7693967639        0.0729922070
 C         -5.5324549834        0.5195752078        0.3510377324
 C         -6.6299044124        1.0318933757       -0.3228677112
 C         -7.2928713155        0.2501831575       -1.2568910095
 C         -6.8693706677       -1.0438771754       -1.5219460672
 C         -5.7721995394       -1.5622352865       -0.8525585835
 H         -5.4112175114       -2.5630188698       -1.0220782702
 H         -7.3889792535       -1.6488113528       -2.2474420701
 H         -8.1458619794        0.6518229219       -1.7807658731
 H         -6.9606689840        2.0372911914       -0.1179726387
 H         -4.9836704676        1.0890835476        1.0836542704
 H         -1.8030864080       -2.0952232806       -0.0324888540
 H         -3.5573732247        0.5062082164       -1.7405627283
 H         -2.6382626046        2.7833503260       -2.0413476805
 H         -0.5216251437        3.4174647378       -0.9748197255
 C          1.0808858602        1.8493153749        0.6463537053
 H          0.8545931869        1.9539086659        1.7186061624
 C          1.7183553061        3.1326943562        0.1540867509
 C          1.3238923459        4.4507318911        0.7476154393
 C          2.6650103306        3.8598276286        1.0594114149
 H          3.5445434538        4.3148194622        0.6292678191
 H          2.8264249644        3.4431957308        2.0435232974
 H          1.2857852670        5.3161968850        0.1034605882
 H          0.5764470784        4.4448623985        1.5267159720
 H          1.9631560092        3.0953676734       -0.9011519781
 O          2.0757954375        0.7484888865       -1.8185355621
