  62
        -98.93844036
 C          1.9884357524        1.1261691478       -0.0134808574
 C          2.6246016452        0.4090753372        1.0311267730
 C          3.2982855820       -0.8550521736        0.6824208474
 C          3.2658070940       -1.2684221449       -0.5978085407
 C          3.8954094553       -2.4953632643       -1.2024527254
 C          5.4164141429       -2.3605056187       -1.3773940052
 C          6.1496540811       -1.7635207588       -0.1792977265
 H          7.1958760199       -1.6280106478       -0.4654558034
 H          5.7405332022       -0.7743620706        0.0334435038
 C          6.1182665633       -2.6106203792        1.0905233937
 H          6.7618667115       -2.1183987163        1.8239200012
 H          6.5476535522       -3.5919788525        0.8774766942
 C          4.7413021565       -2.8095455173        1.7281193091
 H          4.1650900531       -3.5625341883        1.1969250982
 H          4.9031719557       -3.1984656177        2.7376033332
 C          3.9200662380       -1.5331961705        1.8795072904
 H          3.0875700766       -1.7327928913        2.5649847529
 H          4.5276827058       -0.7705847562        2.3798037048
 H          5.8247615199       -3.3468535521       -1.6039431000
 H          5.6006565888       -1.7129850060       -2.2381426570
 H          3.4405351397       -2.6260872606       -2.1871464796
 H          3.6491339893       -3.3706673973       -0.6084557980
 O          2.6432205280       -0.5477958317       -1.5720980542
 C          1.9794576573        0.6375272344       -1.3188554350
 O          1.4485168078        1.1334436639       -2.3355515608
 O          2.6383201647        0.8151058729        2.2244608222
 C          1.2660145398        2.4042005405        0.3838234330
 C         -0.1966241922        2.0987414130        0.6007117614
 C         -0.7726098315        2.1896901626        1.8622771216
 C         -2.0981112611        1.8432174761        2.0601145529
 C         -2.8697923087        1.3818092087        1.0081580081
 C         -2.2990713906        1.2804974645       -0.2532109706
 C         -0.9815261807        1.6557002575       -0.4549555707
 H         -0.5450032712        1.5581310660       -1.4383313177
 N         -3.0652870138        0.7393243044       -1.3183427276
 S         -3.1533116671       -0.9455926003       -1.2358542521
 O         -1.9333130620       -1.5131634745       -0.7026388655
 O         -3.5409193836       -1.3840440022       -2.5590402957
 C         -4.4968711006       -1.2243304396       -0.1024485788
 C         -5.7777166358       -0.9122684098       -0.5152530133
 C         -6.8299154076       -1.1081216153        0.3649766544
 C         -6.5844309060       -1.6094706588        1.6348419345
 C         -5.2928812370       -1.9198547612        2.0328176810
 C         -4.2356857503       -1.7260673456        1.1573281730
 H         -3.2142225510       -1.9480620118        1.4224657831
 H         -5.1033365911       -2.3092044312        3.0201726870
 H         -7.4045124790       -1.7602006624        2.3189616155
 H         -7.8356813206       -0.8692343607        0.0591851676
 H         -5.9209953294       -0.5315066169       -1.5126229840
 H         -2.6767210541        0.9807443216       -2.2212650548
 H         -3.8995105225        1.0989404034        1.1542295208
 H         -2.5315579190        1.9221888938        3.0452166510
 H         -0.1649727735        2.5133870811        2.6946234400
 H          1.6966561082        2.6900307626        1.3528779207
 C          1.4606069402        3.5509120094       -0.5867508003
 C          1.2279802293        4.9516321634       -0.1078623053
 C          2.6203604386        4.4804918575       -0.3993709261
 H          3.1229452702        4.8577125912       -1.2772461092
 H          3.2810050624        4.2928825308        0.4344490842
 H          0.7715195402        5.6571417786       -0.7847952294
 H          0.9451003262        5.0855338800        0.9251200142
 H          1.1781758018        3.3108431816       -1.6033605723
