  62
        -98.93482895
 C         -1.5903498653       -1.2774819611        0.1634838220
 C         -1.6998199296        0.0649736540        0.6044014087
 C         -2.8135311067        0.8592761746        0.0618825620
 C         -3.6556700405        0.2888387148       -0.8167012116
 C         -4.8296847497        0.9047849334       -1.5363438484
 C         -5.7452893389        1.8377739475       -0.7339377946
 C         -5.9272576838        1.4525845146        0.7413612681
 H         -6.9938885989        1.4139268727        0.9701922688
 H         -5.5197768248        0.4561639159        0.9211897784
 C         -5.2763956153        2.4498107167        1.7026912431
 H         -5.7343449024        2.3379882290        2.6884911445
 H         -5.4917306524        3.4629032936        1.3560572971
 C         -3.7672582013        2.2938737522        1.8854886922
 H         -3.4156403148        3.1248735657        2.5019619062
 H         -3.5538957372        1.3748208711        2.4383887918
 C         -2.9406467438        2.2599625747        0.5894522651
 H         -3.3504773236        2.9369842173       -0.1563492394
 H         -1.9256033277        2.5831410882        0.8372546215
 H         -6.7153631648        1.8331011209       -1.2339243718
 H         -5.3687165832        2.8579665256       -0.7909304268
 H         -4.4481282605        1.4420558468       -2.4095056011
 H         -5.4090352638        0.0569700071       -1.9100273171
 O         -3.5134169920       -1.0044520755       -1.2172195687
 C         -2.4876457571       -1.8199656330       -0.7560713615
 O         -2.5074697699       -2.9659751027       -1.2388271387
 H          2.0145332359       -1.1318109935        1.4047768198
 C          1.9540871118       -1.3962988907        0.3599415944
 C          0.7767707113       -1.9082316439       -0.1634376841
 C          0.7248108232       -2.2231152324       -1.5189043981
 C          1.8344329504       -2.0381402335       -2.3220801558
 C          3.0044409313       -1.5138338733       -1.7988299795
 C          3.0619081825       -1.1839996633       -0.4507314363
 N          4.2309716551       -0.6396263490        0.1106512847
 S          4.1083991167        0.7773606648        1.0003658010
 O          5.4707319179        1.2517023223        1.1103766908
 O          3.4248549035        0.5203838655        2.2403188071
 C          3.1732799564        1.8723826650       -0.0519460740
 C          1.7947690742        1.8968181178        0.0103781262
 C          1.1040540994        2.6956126833       -0.8886013623
 C          1.7926262723        3.4524319927       -1.8228944395
 C          3.1785752786        3.4211007816       -1.8669506867
 C          3.8757032378        2.6191126622       -0.9792949969
 H          4.9526662380        2.5685616391       -0.9741384035
 H          3.7138964003        4.0143994648       -2.5906296266
 H          1.2454288027        4.0705322926       -2.5171564666
 H          0.0258555553        2.7112611373       -0.8482820848
 H          1.2668826550        1.3103253078        0.7464247115
 H          5.0012038421       -0.5699481332       -0.5398368964
 H          3.8666031975       -1.3602378131       -2.4298632967
 H          1.7853613986       -2.2940630126       -3.3696526335
 H         -0.1942428761       -2.6139070035       -1.9295704520
 C         -0.4296412328       -2.0807924888        0.7233560123
 H         -0.1949947555       -1.6019620760        1.6879635840
 C         -0.7716744492       -3.5348789025        1.0138097274
 C         -0.1446201467       -4.6959555745        0.3075802928
 C          0.2267157908       -4.3985822592        1.7272031722
 H         -0.1201197867       -5.0588567349        2.5076305144
 H          1.2033489416       -3.9742620999        1.9096323348
 H          0.5860825596       -4.4984186134       -0.4603847889
 H         -0.7718894495       -5.5497329487        0.1014329403
 H         -1.8107959022       -3.6580628762        1.3010929572
 O         -0.8897538237        0.5834559396        1.4194826072
