  62
        -98.93807776
 C         -2.0052813726       -0.7861233141        0.6066293555
 C         -2.0106447781       -0.0437866832       -0.5973058352
 C         -2.0933788458        1.4193566909       -0.4599543805
 C         -2.1050944129        1.9675593872        0.7664880020
 C         -2.1216078624        3.4294553608        1.1388662901
 C         -3.0658121727        4.3508498428        0.3530255903
 C         -4.3652287341        3.6912152158       -0.1316398971
 H         -4.4920316953        2.7193850380        0.3483095482
 H         -5.2105338959        4.3149639063        0.1646514557
 C         -4.4171801987        3.5210218441       -1.6518817566
 H         -4.0376077088        4.4323816616       -2.1186485311
 H         -5.4600783324        3.4065015282       -1.9565736154
 C         -3.6503224683        2.3201725375       -2.2048685294
 H         -3.6662065972        2.3831495194       -3.2954776515
 H         -4.1621194410        1.3942732159       -1.9291220303
 C         -2.1896847639        2.1965840844       -1.7406872173
 H         -1.6429413574        1.6112580195       -2.4851148893
 H         -1.7153796533        3.1713095737       -1.6545125165
 H         -3.3056862747        5.1887390074        1.0097679842
 H         -2.5372402078        4.7649584846       -0.5044240146
 H         -2.3876046505        3.4489560125        2.1986602802
 H         -1.0975244044        3.8064565563        1.0573422542
 O         -2.0675010537        1.2138597758        1.9034631643
 C         -2.0121847995       -0.1679129259        1.8539285965
 O         -1.9808848453       -0.7236909371        2.9728076963
 H          0.5047220278       -1.2001579543        0.9342566418
 C          0.5450640075       -1.9650292463        0.1708088632
 C         -0.6077490635       -2.6667357394       -0.1590436989
 C         -0.5271786306       -3.6578116145       -1.1282147908
 C          0.6725411210       -3.9080996694       -1.7724294885
 C          1.8055335216       -3.1742075072       -1.4750497247
 C          1.7393849580       -2.1945103501       -0.4897767336
 N          2.8754261719       -1.4438590345       -0.1384258096
 S          2.6547923271        0.1561330123        0.3549536078
 O          2.3255520600        0.1676620020        1.7595798276
 O          1.7368237747        0.8395665149       -0.5281315170
 C          4.3112988054        0.7781177146        0.1274434215
 C          5.2525866209        0.5338256554        1.1096108099
 C          6.5505040991        0.9810119857        0.9198357846
 C          6.8842259744        1.6599019545       -0.2428276388
 C          5.9284885641        1.8995731325       -1.2186800677
 C          4.6286931825        1.4538659464       -1.0356346098
 H          3.8497144635        1.6230426533       -1.7618806735
 H          6.1895597663        2.4307199069       -2.1197643371
 H          7.8948589130        2.0072471075       -0.3879337166
 H          7.2950691533        0.7988746094        1.6778052608
 H          4.9425038261        0.0102343442        1.9989084251
 H          3.6207709900       -1.5215478345       -0.8173502865
 H          2.7330511057       -3.3542578703       -1.9968357104
 H          0.7206345626       -4.6749890087       -2.5306130012
 H         -1.4061491664       -4.2236541504       -1.3901012024
 C         -1.8837408886       -2.2986499453        0.5599951745
 H         -1.7970591967       -2.6299387959        1.6058656434
 C         -3.1246215314       -2.9154631882       -0.0507095571
 C         -3.5641347125       -4.2895090889        0.3544702107
 C         -4.3407112392       -3.0905164184        0.8065947784
 H         -5.3106695902       -2.9062028888        0.3697918637
 H         -4.2629836667       -2.7873343668        1.8409034867
 H         -2.9658105979       -4.8095511901        1.0872235318
 H         -4.0060567597       -4.9308071566       -0.3930606722
 H         -3.2759897759       -2.6079884019       -1.0790260171
 O         -1.9480260961       -0.5761778593       -1.7365916790
