  62
        -98.93526981
 C         -1.7471460229       -0.5572773013       -0.0492407542
 C         -2.9211180043       -1.0249635798        0.5932476364
 C         -4.2178033444       -0.5509126453        0.0726018303
 C         -4.2200099534        0.3190630895       -0.9538422373
 C         -5.4003858964        0.9718972711       -1.6224982969
 C         -6.0043858388        2.1074299391       -0.7808269996
 C         -6.1672034087        1.7909546648        0.7035417654
 H         -5.1936560778        1.5312676616        1.1233442336
 H         -6.5010842998        2.7046047399        1.2025078124
 C         -7.1718099321        0.6878526213        1.0280414263
 H         -8.1516837345        0.9690961832        0.6357005314
 H         -7.2536031701        0.6344151474        2.1167291365
 C         -6.8229563320       -0.7090980047        0.5099572694
 H         -7.0368918702       -0.7990725762       -0.5517331396
 H         -7.4816111576       -1.4184037484        1.0196842210
 C         -5.3939306135       -1.1571891390        0.7995726010
 H         -5.1874819529       -1.0291162346        1.8682459197
 H         -5.3254432135       -2.2374037530        0.6217809164
 H         -5.3469468760        2.9763548968       -0.8653117795
 H         -6.9727794696        2.3749799749       -1.2070210901
 H         -5.0350785153        1.3929457847       -2.5619410842
 H         -6.1524546279        0.2266665204       -1.8643240355
 O         -3.0664052710        0.7723611149       -1.5187019518
 C         -1.8114054929        0.3599023280       -1.0989919331
 O         -0.8771570279        0.8769909569       -1.7390998204
 O         -2.8938478142       -1.8126355379        1.5765334743
 C         -0.4180017642       -1.0498299537        0.4965079823
 C          0.5083228281        0.1074587252        0.7599571556
 C          0.3844307216        0.8421076498        1.9348383930
 C          1.2285107319        1.9053957809        2.2003115689
 C          2.2122882514        2.2624986050        1.2942203262
 C          2.3306181823        1.5455001071        0.1129776933
 C          1.4939994056        0.4694763596       -0.1448798236
 H          1.5932139478       -0.0742094310       -1.0715350451
 N          3.3569518330        1.8908198696       -0.8022198863
 S          4.8683706941        1.3465836984       -0.3258181596
 O          5.2609045596        2.0593748559        0.8626946189
 O          5.7324479577        1.4872363663       -1.4758461478
 C          4.6098038882       -0.3779690933        0.0520238558
 C          4.1960852247       -0.7296963612        1.3213346059
 C          3.8858577932       -2.0549343436        1.5806354055
 C          3.9899781027       -2.9993481177        0.5707075703
 C          4.4099137733       -2.6304993495       -0.6983447702
 C          4.7164513884       -1.3058043128       -0.9646713947
 H          5.0456143602       -0.9766274866       -1.9374630989
 H          4.4915574433       -3.3684489379       -1.4803547622
 H          3.7413079458       -4.0292920949        0.7742864250
 H          3.5550916633       -2.3440742899        2.5652761270
 H          4.1267303789        0.0340671865        2.0785618292
 H          3.1644429966        1.5608280311       -1.7382010486
 H          2.8932229086        3.0756390498        1.4869369608
 H          1.1213904739        2.4605153892        3.1199146197
 H         -0.3854626813        0.5684226331        2.6430341123
 H         -0.6791690454       -1.5050926544        1.4651692409
 C          0.2496652709       -2.1412948368       -0.3280202830
 C         -0.5661006536       -3.2263034672       -0.9621929626
 C          0.1469064817       -2.2263921743       -1.8201337537
 H          1.0174231069       -2.5532629856       -2.3703748916
 H         -0.4361301201       -1.4780456505       -2.3337388250
 H         -0.1941125973       -4.2389234336       -0.9304204639
 H         -1.6406722497       -3.1510308963       -0.8795715061
 H          1.1999878795       -2.4388914376        0.1056855994
