  62
        -98.94274515
 C         -1.2754212129       -1.6273063202        0.2160361468
 C         -1.6398450125       -0.6248440073        1.1444570101
 C         -2.8674810601        0.1325471542        0.8530245636
 C         -3.5598535986       -0.1452927298       -0.2651743419
 C         -4.8678435489        0.4376340399       -0.7418188005
 C         -5.0944608256        1.9426074533       -0.5616514083
 C         -3.8450967320        2.8127846613       -0.7611167508
 H         -3.0335726168        2.2214839137       -1.1905149703
 H         -4.0748268504        3.6098611820       -1.4710183831
 C         -3.3538904363        3.4622225593        0.5340434318
 H         -2.7199024311        4.3145378042        0.2775292015
 H         -4.2138830815        3.8431693960        1.0902417807
 C         -2.5286640202        2.5483512160        1.4375198681
 H         -2.2886657405        3.1024293823        2.3487862914
 H         -1.5806759302        2.3200769368        0.9409206355
 C         -3.2061307118        1.2229961969        1.8282861378
 H         -4.2808241888        1.3493941832        1.9368275043
 H         -2.7954237267        0.9043183324        2.7903913624
 H         -5.5088418184        2.1354476795        0.4268153121
 H         -5.8588576432        2.2326504147       -1.2848489433
 H         -4.9178416855        0.1873032212       -1.8045556746
 H         -5.6777189415       -0.1062800671       -0.2457123000
 O         -3.1528633704       -1.0979791760       -1.1524999885
 C         -1.9961269218       -1.8363532734       -0.9577678352
 O         -1.7334267127       -2.6297912127       -1.8819584388
 O         -0.9699565103       -0.3787477648        2.1843704317
 C         -0.0004546384       -2.4148966509        0.4516136193
 C          1.0506260164       -2.0235267689       -0.5598812163
 C          1.9459259230       -2.9206477898       -1.1288251077
 C          2.9028148601       -2.4768397013       -2.0259118539
 C          3.0072517971       -1.1372910010       -2.3552053391
 C          2.1182706185       -0.2314306744       -1.7876985471
 C          1.1510767363       -0.6835239550       -0.9059893664
 H          0.4494724751        0.0251067665       -0.4959443737
 N          2.1757556542        1.1382329139       -2.0841291267
 S          1.8166689638        2.2541771382       -0.8894297954
 O          0.3967854434        2.2982916733       -0.6495092400
 O          2.4115908963        3.4847402056       -1.3674596866
 C          2.7072629353        1.6791842626        0.5455076173
 C          2.0541387784        1.1118385913        1.6198135814
 C          2.8080379245        0.6322433311        2.6806688320
 C          4.1898486997        0.7269831651        2.6517626872
 C          4.8311781268        1.3083297435        1.5678623487
 C          4.0850691463        1.7861452184        0.5042209211
 H          4.5442328201        2.2551626362       -0.3509628074
 H          5.9062018401        1.3865888403        1.5485062162
 H          4.7688573036        0.3478417071        3.4790383979
 H          2.2998081841        0.1823174702        3.5187243001
 H          0.9776552658        1.0375304952        1.6282334229
 H          2.9631556201        1.4243136764       -2.6464732547
 H          3.7587009105       -0.7952409090       -3.0500256120
 H          3.5855460426       -3.1854225279       -2.4695557219
 H          1.8895114783       -3.9668999685       -0.8769745448
 H          0.3604153144       -2.0903417564        1.4402841468
 C         -0.2729025404       -3.9030991198        0.4987547120
 C          0.5660316099       -4.7976964055        1.3605239877
 C         -0.8479590742       -4.4930333885        1.7507270718
 H         -1.5911090453       -5.2708055384        1.6596244940
 H         -1.0178801997       -3.8237842095        2.5816267268
 H          0.7938357260       -5.7907588591        1.0035705649
 H          1.3577247623       -4.3409697020        1.9348954046
 H         -0.6334189360       -4.2902769869       -0.4472137142
