  62
        -98.94610349
 C          1.6112386701        1.2991154705        0.4099686585
 C          1.5390868300        0.2637865704       -0.5531905214
 C          2.4156603201       -0.8913751995       -0.3136786515
 C          3.1852380103       -0.9363802094        0.7886580983
 C          4.1073612805       -2.0581002593        1.1822156582
 C          5.4925948603       -1.9836829093        0.5252961279
 C          5.5251614800       -2.3275905494       -0.9644548121
 H          6.5742552899       -2.4459271894       -1.2428568123
 H          5.0361592500       -3.2888573995       -1.1258794419
 C          4.8910259997       -1.2657363296       -1.8738145220
 H          4.8031207698       -0.3235709495       -1.3278069621
 H          5.5464099495       -1.0794137196       -2.7276654922
 C          3.5192685396       -1.6454069097       -2.4317747217
 H          3.6183260595       -2.5118677498       -3.0895302416
 H          3.1507176694       -0.8091975998       -3.0315144717
 C          2.4660636199       -1.9630515296       -1.3618785714
 H          1.4884493898       -2.0055878897       -1.8490131611
 H          2.6739338200       -2.9328382596       -0.9097299413
 H          5.8979715903       -0.9805225793        0.6764019077
 H          6.1417442205       -2.6865699492        1.0524178878
 H          4.2363557007       -1.9890410392        2.2643762982
 H          3.6444147905       -3.0168553494        0.9471444584
 O          3.1969554205        0.0620179207        1.7103004582
 C          2.4321444504        1.2019686506        1.5381070983
 O          2.5634628906        2.0471890607        2.4447805182
 H         -1.1372457304        1.7760375201       -1.5002706809
 C         -1.4970353601        1.7612125002       -0.4842434908
 C         -0.6684496099        2.1711563804        0.5482219790
 C         -1.1513831796        2.1145766705        1.8524938291
 C         -2.4314243895        1.6605987404        2.1132694094
 C         -3.2453044797        1.2222852703        1.0826819497
 C         -2.7635384800        1.2600881502       -0.2187127004
 N         -3.5485123302        0.7375443400       -1.2636675102
 S         -4.1985442201       -0.7824070300       -0.9904897299
 O         -4.2331354304       -1.4297747201       -2.2838964998
 O         -5.4772043599       -0.6388277100       -0.3371321096
 C         -3.0733246498       -1.6312274198        0.1107112699
 C         -3.5882307795       -2.2366028997        1.2397045101
 C         -2.7292536692       -2.8970142796        2.1028563400
 C         -1.3712728893       -2.9339551995        1.8279061696
 C         -0.8694074396       -2.3224561996        0.6898569895
 C         -1.7243327099       -1.6684279598       -0.1829676304
 H         -1.3372799701       -1.1808052998       -1.0642033705
 H          0.1886106603       -2.3359459296        0.4784876192
 H         -0.6975306291       -3.4382066094        2.5026353495
 H         -3.1189069190       -3.3737233695        2.9878084801
 H         -4.6487457794       -2.1707830698        1.4215935703
 H         -3.0807938305        0.7634117900       -2.1590220203
 H         -4.2369740396        0.8408561503        1.2667340899
 H         -2.7949866992        1.6320516405        3.1289914395
 H         -0.5020316094        2.4159446606        2.6624489489
 C          0.7672834500        2.5609795904        0.2975512186
 H          1.0931657902        3.2153243805        1.1161545784
 C          0.9871210297        3.2801970403       -1.0169719115
 C          0.5059743996        4.6911763203       -1.1661879016
 C          1.9743449296        4.4050185504       -1.0791239419
 H          2.5755918094        4.5140202203       -1.9694552120
 H          2.4934702998        4.6665145305       -0.1684794220
 H          0.0971542893        5.0004598202       -2.1159660915
 H          0.0269916798        5.1462646903       -0.3124587315
 H          0.9287608695        2.6323153802       -1.8822206615
 O          0.7924935997        0.2822193302       -1.5670739912
