  62
        -98.94881573
 C          1.9076056400        0.7240441764       -0.2948224794
 C          1.0856701253        1.5263053215       -1.1198398661
 C          0.4926068906        2.7110069078       -0.4839184525
 C          0.7261427091        2.9399419643        0.8215575316
 C          0.1698814315        4.0955344589        1.6019353968
 C         -1.1726193705        3.7415388158        2.2546662854
 C         -2.1858346281        3.1285296411        1.2881270276
 H         -1.8294548196        2.1402944911        0.9866168794
 H         -3.1103368399        2.9661955643        1.8475675510
 C         -2.4781771931        3.9872157041        0.0495522607
 H         -3.5575034585        4.0020174848       -0.1162144097
 H         -2.1641468259        5.0157025604        0.2324006156
 C         -1.8383421057        3.4808892018       -1.2437691010
 H         -2.0930589449        2.4282279169       -1.3793008989
 H         -2.2783876469        4.0343966520       -2.0777928349
 C         -0.3161390946        3.6362672996       -1.3517994949
 H         -0.0416272685        4.6747610728       -1.1528327665
 H         -0.0325971208        3.3986831464       -2.3816613273
 H         -0.9911095575        3.0197244341        3.0547672493
 H         -1.5896923204        4.6478406143        2.6988891012
 H          0.8858611726        4.3539359736        2.3843810862
 H          0.0480728469        4.9497357807        0.9378988256
 O          1.4893171532        2.1255474013        1.5929645956
 C          2.0933457893        0.9972165019        1.0606282824
 O          2.7714223943        0.3441358546        1.8773211096
 O          0.8636627620        1.2699448246       -2.3348971074
 C          2.5745928856       -0.5088772520       -0.8822233903
 C          2.1323155651       -1.7268989206       -0.1095598643
 C          2.9967482264       -2.6877629784        0.3960730682
 C          2.5036715948       -3.7335499176        1.1583640247
 C          1.1551280630       -3.8322271452        1.4460776323
 C          0.2784986288       -2.8848286519        0.9264230914
 C          0.7709713436       -1.8697357473        0.1260305494
 H          0.0927584800       -1.1363474531       -0.2782619099
 N         -1.0964028061       -2.9526848520        1.1852810680
 S         -2.0689196236       -1.5906770361        1.1977547916
 O         -1.3510345655       -0.3973143059        1.5765578230
 O         -3.1823841441       -1.9639949122        2.0453679337
 C         -2.6458941793       -1.4866218206       -0.4832447441
 C         -2.2214577339       -0.4635166781       -1.3049135928
 C         -2.6711514369       -0.4181594489       -2.6150314863
 C         -3.5400443661       -1.3936494300       -3.0779578486
 C         -3.9649711747       -2.4134331829       -2.2389088687
 C         -3.5141785863       -2.4640029462       -0.9301964796
 H         -3.8251901566       -3.2332453452       -0.2432398037
 H         -4.6432136442       -3.1684833510       -2.6023609665
 H         -3.8875166678       -1.3559714642       -4.0982913058
 H         -2.3275249730        0.3739677992       -3.2616980464
 H         -1.5401361855        0.2790861954       -0.9166054076
 H         -1.3728717890       -3.6292334379        1.8805040312
 H          0.7810162210       -4.6283737416        2.0715249514
 H          3.1850115668       -4.4713655014        1.5545996054
 H          4.0557436289       -2.6102934272        0.2121601104
 H          2.1957562473       -0.5886738952       -1.9120248619
 C          4.0771830532       -0.3285993779       -0.9247302723
 C          4.8945885464       -1.0365122303       -1.9626258645
 C          4.6835907836        0.4439256183       -2.0563652741
 H          5.5143419204        1.1003170421       -1.8449544904
 H          4.0120535200        0.8205640473       -2.8139179715
 H          5.8749850154       -1.3963995705       -1.6893073913
 H          4.3717098317       -1.6677994767       -2.6647939760
 H          4.5056304227       -0.1903635785        0.0619256429
