  62
        -98.93475368
 C         -1.6829385524       -0.5044944750       -0.4205046355
 C         -2.9234800304       -0.7593518537       -1.0529228289
 C         -4.1479556925       -0.5094631648       -0.2676676714
 C         -4.0224143109       -0.1019083704        1.0087617340
 C         -5.1106319964        0.2486490436        1.9885662575
 C         -5.7449166492        1.6200962302        1.7066577733
 C         -6.0574425229        1.8945581838        0.2380562583
 H         -6.4008093779        2.9294655256        0.1595769617
 H         -5.1385518646        1.8136547373       -0.3454127926
 C         -7.1299309048        0.9990545475       -0.3775551947
 H         -8.0565823205        1.1069573765        0.1905851514
 H         -7.3170667963        1.3664227635       -1.3899003640
 C         -6.7863276153       -0.4892891823       -0.4702704171
 H         -6.9022853290       -0.9805522151        0.4921143126
 H         -7.5153886962       -0.9502626687       -1.1431337644
 C         -5.4080293554       -0.7892878748       -1.0509460562
 H         -5.2972729383       -0.2596550483       -2.0042357177
 H         -5.3621938932       -1.8543873209       -1.3090324652
 H         -6.6584220886        1.7050738126        2.2976593127
 H         -5.0491551626        2.3903719154        2.0480642947
 H         -4.6443490954        0.2776002273        2.9758667741
 H         -5.8659255625       -0.5315981627        2.0026809361
 O         -2.8053395480        0.0852107557        1.5927231846
 C         -1.6126125843       -0.1097594812        0.9159592770
 O         -0.5993094089        0.0954177854        1.6084569886
 O         -3.0138728939       -1.1823130420       -2.2374873551
 C         -0.4174579038       -0.7536307271       -1.2204650646
 C          0.5559557645       -1.5743188743       -0.4139674108
 C          0.1705659605       -2.8463340288        0.0034325992
 C          1.0216032302       -3.6322871418        0.7541407542
 C          2.2855450032       -3.1758259042        1.0861574221
 C          2.6812441011       -1.9109490144        0.6720630455
 C          1.8160939104       -1.1160670772       -0.0673766896
 H          2.1340571018       -0.1285381383       -0.3556969099
 N          3.9487853316       -1.4108501059        1.0023006089
 S          4.8097232717       -0.5205130743       -0.1187783299
 O          4.5427976648       -0.9619093328       -1.4683955519
 O          6.1871513482       -0.6194022495        0.3169327777
 C          4.2650003701        1.1601100908        0.0970095956
 C          4.1094590376        1.9614592009       -1.0165585384
 C          3.7371877858        3.2855076290       -0.8440853765
 C          3.5277976524        3.7820932669        0.4332822901
 C          3.6880697908        2.9636521182        1.5409653810
 C          4.0644470100        1.6405330771        1.3755806280
 H          4.1952238256        0.9773418848        2.2141843882
 H          3.5194697424        3.3519184685        2.5324953579
 H          3.2348839321        4.8117397484        0.5654397891
 H          3.6109793405        3.9231267059       -1.7049345466
 H          4.2711514577        1.5310413696       -1.9922274918
 H          4.5398636748       -2.0448337235        1.5194000893
 H          2.9562950989       -3.7904578477        1.6674149700
 H          0.7048715015       -4.6127569062        1.0771951267
 H         -0.8148232609       -3.2056670310       -0.2619116445
 H         -0.7505971540       -1.3710539333       -2.0722355069
 C          0.2044651991        0.5014205457       -1.8134505130
 C         -0.6488877605        1.6669210980       -2.2126430341
 C          0.2919028961        1.7897255352       -1.0536005530
 H          1.1795387885        2.3935101982       -1.1726305478
 H         -0.1153684504        1.8086623557       -0.0553075481
 H         -0.4114732450        2.1866752697       -3.1285633214
 H         -1.7077721530        1.6024002359       -2.0085373657
 H          1.0368802649        0.2655586748       -2.4707472615
