  62
        -98.93484650
 C          2.2067117712        0.6751707501        0.7584327064
 C          2.6199512784        0.4226495492       -0.5744122334
 C          3.4897808191       -0.7495786979       -0.7584235294
 C          3.7828422498       -1.5452197395        0.2841198545
 C          4.6361658944       -2.7838637156        0.2460123468
 C          6.1429364897       -2.5075354987        0.3442309645
 C          6.7757951500       -1.8950681296       -0.9060136893
 H          7.8584537961       -1.9596811500       -0.7805221139
 H          6.5125915974       -2.4968706832       -1.7764328913
 C          6.3943560047       -0.4292955219       -1.1560072540
 H          5.9816534298        0.0006517243       -0.2404970053
 H          7.2913695083        0.1431696800       -1.4023918185
 C          5.3957426323       -0.2192868178       -2.2942648103
 H          5.8488703642       -0.5241012024       -3.2400975128
 H          5.1676564814        0.8475696649       -2.3573342778
 C          4.0727966100       -0.9767842474       -2.1205734294
 H          3.3582525239       -0.5958547801       -2.8542508200
 H          4.2215404443       -2.0416832236       -2.2981229471
 H          6.6356749738       -3.4617433025        0.5447173769
 H          6.3226442005       -1.8545778705        1.2015157985
 H          4.4257475566       -3.3453375065       -0.6648153531
 H          4.3399878280       -3.3914059376        1.1041014981
 O          3.2974596271       -1.3147075221        1.5341373474
 C          2.5179186934       -0.2031082132        1.7996987416
 O          2.1586370743       -0.1106054502        2.9934644125
 O          2.2951947796        1.1181158075       -1.5669612206
 C          1.3330448173        1.8678585637        1.1368893921
 C         -0.0102634170        1.7074042249        0.4677165951
 C         -0.3614820200        2.1905701229       -0.7869502550
 C         -1.6073998400        1.9122625940       -1.3239895000
 C         -2.5292956863        1.1451200739       -0.6366763101
 C         -2.1844451122        0.6369716318        0.6084881280
 C         -0.9413715657        0.9268995979        1.1479634784
 H         -0.6733309425        0.5162327544        2.1141195181
 N         -3.1078714465       -0.1553310220        1.3172385005
 S         -3.7528633503       -1.4856498014        0.5170617677
 O         -4.1265061148       -2.4129324458        1.5631967368
 O         -2.8489036539       -1.9853716351       -0.4937171535
 C         -5.2309439543       -0.8442514351       -0.2415272571
 C         -5.4076577568       -0.9513912682       -1.6070805333
 C         -6.5680736240       -0.4470305486       -2.1738662934
 C         -7.5257788141        0.1510912343       -1.3692886197
 C         -7.3344595550        0.2475729044        0.0011743636
 C         -6.1773864225       -0.2553621578        0.5741988025
 H         -5.9914289673       -0.2048924543        1.6340230589
 H         -8.0817607742        0.7127710710        0.6236109160
 H         -8.4269702630        0.5439398116       -1.8129923832
 H         -6.7185919891       -0.5221568817       -3.2388942807
 H         -4.6324946051       -1.4193738778       -2.1930921218
 H         -2.7794768400       -0.4274279072        2.2332326732
 H         -3.4969739612        0.9255602338       -1.0571533593
 H         -1.8597492163        2.2976230191       -2.3002399551
 H          0.3451561185        2.7523023250       -1.3703229378
 H          1.1520862586        1.7328109702        2.2144254308
 C          2.0783148888        3.1921888343        1.0348446748
 C          2.4842991215        3.8964211085       -0.2234619035
 C          1.4216622869        4.4852609852        0.6534587955
 H          1.6633142378        5.3677740342        1.2269642556
 H          0.3984507063        4.4469924579        0.3145915146
 H          3.4579485851        4.3665627148       -0.2297488496
 H          2.2223103073        3.4550099441       -1.1697603621
 H          2.8068429130        3.2527786528        1.8407315681
