  62
        -98.93410252
 C         -1.7674016998       -0.5986378420       -1.0112097977
 C         -2.0838953498       -0.2654537194        0.3261257617
 C         -3.5209087598       -0.1923450588        0.6715951216
 C         -4.4356035498       -0.4726734007       -0.2743376279
 C         -5.9372722798       -0.4319373406       -0.1690810979
 C         -6.4958318199        0.9995556293       -0.1830402507
 C         -5.7470773199        1.9884299811        0.7061693873
 H         -4.7018184699        2.0297165406        0.3950931372
 H         -6.1759343700        2.9792288408        0.5345337453
 C         -5.8202488099        1.7001859741        2.2037882979
 H         -5.3369024499        2.5348208851        2.7178954462
 H         -6.8672190399        1.6813276046        2.5144948979
 C         -5.1497172498        0.4056298850        2.6700685104
 H         -5.7755144897       -0.4588447754        2.4648696021
 H         -5.0510298298        0.4642839672        3.7579728103
 C         -3.7458537398        0.1816375140        2.1170150408
 H         -3.2619003297       -0.6105974048        2.7009923724
 H         -3.1421076398        1.0783486144        2.2972464090
 H         -7.5456499399        0.9620383398        0.1128368194
 H         -6.4480748999        1.3712113073       -1.2096472215
 H         -6.3254645998       -0.9649891824       -1.0400063369
 H         -6.2649899097       -0.9661212289        0.7177825131
 O         -4.0809170498       -0.8223919732       -1.5450365572
 C         -2.7619206698       -0.9049923239       -1.9421019371
 O         -2.6013837598       -1.2650244862       -3.1259873263
 O         -1.2209679798       -0.0309205076        1.2110753912
 C         -0.3306052498       -0.7211952729       -1.4868927275
 C          0.4891266003       -1.4965655708       -0.4843430260
 C          0.0348551704       -2.7471645300       -0.0707557635
 C          0.7496235504       -3.4921119282        0.8453543880
 C          1.9516953904       -3.0221678771        1.3466945770
 C          2.4219078903       -1.7850510779        0.9292610546
 C          1.6876353103       -1.0273908497        0.0270652531
 H          2.0606691202       -0.0589596303       -0.2585203088
 N          3.6378669003       -1.2698198069        1.4076282135
 S          4.7070466602       -0.6013382890        0.3054350022
 O          4.6120012002       -1.2493587715       -0.9825590365
 O          5.9980964802       -0.6707980676        0.9570287723
 C          4.2281998401        1.1074608907        0.1672057288
 C          4.1340643001        1.6819055482       -1.0850222423
 C          3.8013166000        3.0236795980       -1.1845885750
 C          3.5710432899        3.7638535503       -0.0348133764
 C          3.6701537900        3.1716791527        1.2152833748
 C          4.0051990201        1.8313722230        1.3215626474
 H          4.0916354901        1.3383222249        2.2752602684
 H          3.4864329500        3.7504361745        2.1060469236
 H          3.3094566999        4.8073671201       -0.1145856685
 H          3.7207778199        3.4845971461       -2.1563337959
 H          4.3126722501        1.0662378865       -1.9523982711
 H          4.1160484103       -1.8625767755        2.0707997147
 H          2.5163803005       -3.6070172257        2.0571655082
 H          0.3754297105       -4.4531215276        1.1658680099
 H         -0.8989994796       -3.1211375009       -0.4698347627
 H         -0.3893564898       -1.3305959047       -2.4049248363
 C          0.3077303501        0.6018688964       -1.8855823601
 C         -0.5274501900        1.7689179655       -2.3179919724
 C          0.2151756000        1.8203111181       -1.0184204625
 H          1.0797858200        2.4636703883       -0.9449705438
 H         -0.3428557999        1.7305369699       -0.1004233723
 H         -0.1734336900        2.3724505239       -3.1401439736
 H         -1.6014482800        1.6530856755       -2.2934209321
 H          1.2396340601        0.4548294254       -2.4241339698
