  62
        -98.94628809
 C          1.1258782992        1.2873848665        0.0044364925
 C          1.6066702402        0.3771037306        0.9793644473
 C          2.4162224171       -0.7448892671        0.4872933364
 C          2.6319500675       -0.8649319459       -0.8351479840
 C          3.4522463549       -1.9466585097       -1.4750312557
 C          4.9188854756       -1.5206459335       -1.6274597513
 C          5.5283814367       -0.9448089587       -0.3491684296
 H          6.5725244333       -0.7084769152       -0.5650579555
 H          5.0281576284       -0.0034488839       -0.1105467070
 C          5.4554195985       -1.8802729998        0.8657194429
 H          5.2733351303       -2.9032191173        0.5344453413
 H          6.4226823935       -1.8706715687        1.3724702654
 C          4.4040345043       -1.4890698669        1.9056612164
 H          4.5246142058       -0.4349921309        2.1676529201
 H          4.5880061643       -2.0747265876        2.8101736309
 C          2.9421395938       -1.7208880493        1.5023015764
 H          2.8126243589       -2.7475422932        1.1530465612
 H          2.3288867398       -1.5820033734        2.3971738794
 H          5.4976751284       -2.3873786251       -1.9520666062
 H          4.9783042481       -0.7601702372       -2.4096731347
 H          3.3850008276       -2.8497769860       -0.8709305279
 H          3.0337663315       -2.1520286991       -2.4623109628
 O          2.1563599125        0.0222058475       -1.7432258210
 C          1.3910364363        1.1161727966       -1.3564710856
 O          1.0307955771        1.8335122433       -2.3092708575
 H         -1.0302200653        0.6730316164       -1.1743357688
 C         -1.7032683018        1.2071031065       -0.5231714779
 C         -1.2180231773        2.1456782177        0.3723576411
 C         -2.1301036428        2.8341976783        1.1676865518
 C         -3.4857493372        2.5862202719        1.0637713183
 C         -3.9619363347        1.6262146865        0.1873573264
 C         -3.0611604186        0.9307733216       -0.6083351277
 N         -3.4951553342       -0.0691014974       -1.4967842459
 S         -2.6905500122       -1.5384734150       -1.4914415655
 O         -1.4066832946       -1.4227963799       -2.1344770361
 O         -3.6257276053       -2.4594134980       -2.1018458836
 C         -2.4985142664       -1.9180837789        0.2393461189
 C         -3.5909675563       -2.4091286129        0.9284698326
 C         -3.4822281929       -2.6211644137        2.2928328141
 C         -2.2958129341       -2.3209307347        2.9460908169
 C         -1.2085547473       -1.8297694343        2.2407662466
 C         -1.3072669586       -1.6315509547        0.8727960581
 H         -0.4748034965       -1.2561944088        0.2981450203
 H         -0.2871973202       -1.5737166690        2.7401177061
 H         -2.2146543844       -2.4709964610        4.0110176982
 H         -4.3228690919       -3.0102457618        2.8443192867
 H         -4.4939971540       -2.6289326835        0.3823298171
 H         -4.4948973540       -0.2147697974       -1.5001090937
 H         -5.0183083753        1.4172765466        0.1176029256
 H         -4.1802627713        3.1319715989        1.6834942895
 H         -1.7684390854        3.5657007039        1.8732061268
 C          0.2633620845        2.4290157133        0.5029468810
 H          0.4846048363        2.5096297943        1.5773388822
 C          0.5947328629        3.7568318619       -0.1545010583
 C          0.5378147883        5.0288487746        0.6348278149
 C          1.8619696617        4.4645453608        0.2183221631
 H          2.4219962351        4.9594848321       -0.5605760293
 H          2.4815581705        4.0069081412        0.9761197796
 H          0.1811954150        5.9209326872        0.1434776746
 H          0.2785583570        4.9668461005        1.6806116358
 H          0.2990289460        3.7954714819       -1.1956958999
 O          1.3643359198        0.4960708985        2.2110311538
