  62
        -98.93700385
 C         -1.8007151740        0.9915671979       -0.7572700060
 C         -2.0384610897        0.3208079458        0.4653890616
 C         -3.4472055028        0.2179238454        0.8849271969
 C         -4.4074516647        0.7625235813        0.1183598952
 C         -5.8934697433        0.8095150903        0.3723027743
 C         -6.5639048308       -0.4735916957        0.8839155064
 C         -5.9318334273       -1.7816240209        0.3858827005
 H         -5.2298385795       -1.5748265295       -0.4237993831
 H         -6.7169528531       -2.4223451858       -0.0201832025
 C         -5.2176263892       -2.5596285029        1.4939247380
 H         -5.1234034652       -3.6034656977        1.1847976690
 H         -5.8401154119       -2.5400037169        2.3912256908
 C         -3.8155013061       -2.0641264171        1.8466696162
 H         -3.1240377907       -2.2935217731        1.0311245223
 H         -3.4729590486       -2.6214732380        2.7217970855
 C         -3.7002106418       -0.5601484502        2.1439511734
 H         -2.8190219499       -0.4096185486        2.7731509249
 H         -4.5752423938       -0.1947301498        2.6758451009
 H         -7.6077831803       -0.4310906795        0.5685020009
 H         -6.5657894926       -0.4742363920        1.9730256819
 H         -6.3357275834        1.0971795393       -0.5845128413
 H         -6.0930687799        1.6225034937        1.0763027237
 O         -4.1289189526        1.4109179728       -1.0489454255
 C         -2.8333353641        1.5312688930       -1.5207597173
 O         -2.7346496271        2.1257352989       -2.6139825073
 O         -1.1226097774       -0.1633889862        1.1784491190
 C         -0.3814759442        1.1283878695       -1.2769270520
 C          0.2496659520       -0.2356321900       -1.4158527514
 C         -0.4592019803       -1.2448637689       -2.0632451854
 C          0.0786939652       -2.5092862331       -2.1998409494
 C          1.3390003497       -2.7932018016       -1.7030426483
 C          2.0591886380       -1.7917073070       -1.0642547375
 C          1.5142880609       -0.5215171134       -0.9281294783
 H          2.0902052722        0.2435296085       -0.4366737323
 N          3.3219027237       -2.0581369727       -0.5222485770
 S          4.5093650059       -0.8896513377       -0.4483622701
 O          4.5150464587       -0.0549619294       -1.6273109311
 O          5.7268803522       -1.6315389973       -0.1970281002
 C          4.1148026951        0.0825667701        0.9902869260
 C          4.3959561953        1.4345426368        0.9732382212
 C          4.1182722224        2.1927368167        2.0996518277
 C          3.5681158783        1.5877524609        3.2190015530
 C          3.2964709246        0.2281591116        3.2217703806
 C          3.5745049997       -0.5360642510        2.0998503508
 H          3.3665966051       -1.5924804766        2.0682632316
 H          2.8638275477       -0.2381210733        4.0922968916
 H          3.3476055070        2.1799215530        4.0932116181
 H          4.3286285269        3.2506223983        2.0995350055
 H          4.8135485795        1.8650839252        0.0766486188
 H          3.6901601753       -2.9804482145       -0.6986302882
 H          1.7588544817       -3.7823567938       -1.8048567966
 H         -0.4857384365       -3.2824108038       -2.6996441870
 H         -1.4441503475       -1.0234230628       -2.4527555520
 H         -0.4637154033        1.5697428092       -2.2813701441
 C          0.4054285505        2.0728870808       -0.3920377884
 C          1.5458458444        2.8644616613       -0.9554259418
 C          0.2609792132        3.5491641992       -0.6008409523
 H          0.2416495680        4.1931458669        0.2652708598
 H         -0.3866235953        3.8748952489       -1.4020975085
 H          2.4083018813        3.0379005091       -0.3299526723
 H          1.7827726352        2.7284548268       -2.0000799875
 H          0.4854166979        1.7165589874        0.6288357290
