  62
        -98.94037699
 C         -2.0470310509       -1.0365431899        0.4507594998
 C         -2.7321797208       -0.1008745597        1.2680940896
 C         -4.1610506408        0.0888442704        0.9923232396
 C         -4.7368246508       -0.6227829597        0.0064041097
 C         -6.1697929008       -0.4954122396       -0.4205383504
 C         -6.3264385307        0.5477866002       -1.5356695905
 C         -5.6396616806        1.8803306902       -1.2360617007
 H         -4.5584673006        1.7260783201       -1.2045952307
 H         -5.8436769205        2.5477942401       -2.0761731408
 C         -6.0930401305        2.5487003204        0.0694400792
 H         -6.2640636104        3.6102423104       -0.1216248010
 H         -7.0424015106        2.1215323006        0.3945905092
 C         -5.0797945206        2.4596249105        1.2122348192
 H         -5.3991760705        3.1429127606        2.0038166491
 H         -4.1016551905        2.7997189304        0.8621465392
 C         -4.9095590707        1.0732115206        1.8459927694
 H         -4.3134521407        1.1949558606        2.7552250994
 H         -5.8867663508        0.6748514407        2.1269141794
 H         -7.3917383407        0.7153493103       -1.7044373906
 H         -5.8966891507        0.1405852001       -2.4537537605
 H         -6.7760534008       -0.2172340094        0.4393993396
 H         -6.5056441309       -1.4648495596       -0.7924709303
 O         -4.0546778509       -1.5156010599       -0.7511382402
 C         -2.6941537309       -1.7391495500       -0.5669780202
 O         -2.2151737310       -2.5707605501       -1.3579648700
 O         -2.1691452008        0.5403129504        2.1967691595
 C         -0.5693273809       -1.2290051100        0.7412659498
 C          0.2645865192       -0.2962893302       -0.0984457403
 C          0.1413184192       -0.2689752904       -1.4843505203
 C          0.9237724793        0.5834126594       -2.2421599404
 C          1.8436363894        1.4227398094       -1.6371583605
 C          1.9728661794        1.4036750196       -0.2554149305
 C          1.1867763693        0.5465636598        0.5041281096
 H          1.2822584592        0.5468506200        1.5815815696
 N          2.9287037594        2.2400444196        0.3590896394
 S          4.5257354594        1.9353814994       -0.0566863105
 O          5.3216550594        2.5801348895        0.9622421794
 O          4.7510488295        2.3642232692       -1.4127497506
 C          4.6682678592        0.1621914194        0.0649396997
 C          4.9209019192       -0.3923559904        1.3041298298
 C          4.9416076890       -1.7719346004        1.4298662000
 C          4.6960043590       -2.5689701305        0.3220371901
 C          4.4430680190       -1.9966520707       -0.9148279600
 C          4.4276761292       -0.6175157207       -1.0486791402
 H          4.2385264292       -0.1355666308       -1.9936969703
 H          4.2510244990       -2.6202045408       -1.7729491499
 H          4.6980740289       -3.6424009505        0.4231647002
 H          5.1398003590       -2.2206341303        2.3901030401
 H          5.1086104692        0.2630697897        2.1397127897
 H          2.8405636994        2.2722249598        1.3652086794
 H          2.4689693695        2.0854240093       -2.2134588106
 H          0.8168045193        0.5946386293       -3.3164260204
 H         -0.5706996608       -0.9280041204       -1.9579167902
 H         -0.4544602609       -0.9164448199        1.7912664498
 C         -0.1114641010       -2.6785320900        0.6465848700
 C          0.8872676189       -3.1709715803       -0.3537875999
 C          1.2749165489       -3.0463694801        1.0867675901
 H          1.4120242088       -3.9438776400        1.6699826602
 H          1.9401929390       -2.2382033101        1.3526172300
 H          0.7293796688       -4.1542203903       -0.7692338498
 H          1.3036825490       -2.4640772804       -1.0537087500
 H         -0.9047109211       -3.3704300499        0.9091330201
