  62
        -98.93895775
 C         -2.3436942119       -0.7632988794        0.6038309621
 C         -3.4264636710       -0.9853037263       -0.2824875734
 C         -4.6721924729       -0.2666988782        0.0292750579
 C         -4.7247517691        0.5412077613        1.1026629796
 C         -5.9098310492        1.3726989032        1.4979758355
 C         -5.8446794829        2.7709169078        0.8676403655
 C         -5.5584442655        2.7589552719       -0.6339992366
 H         -5.5667604567        3.7966420438       -0.9745574847
 H         -4.5494294695        2.3746065864       -0.8009554129
 C         -6.5566788258        1.9400289724       -1.4642501900
 H         -7.4677362845        1.7727210865       -0.8886623884
 H         -6.8333186501        2.5179342198       -2.3485429468
 C         -6.0171020891        0.5973213978       -1.9602615627
 H         -5.0548670326        0.7497030736       -2.4554125111
 H         -6.7122969830        0.2069501035       -2.7082466427
 C         -5.8413246947       -0.4869901484       -0.8897295033
 H         -6.7650451355       -0.5932047480       -0.3176328399
 H         -5.6440738537       -1.4320102950       -1.4038421689
 H         -6.7926702465        3.2782649747        1.0556194773
 H         -5.0518482564        3.3367106557        1.3624780000
 H         -6.8216163406        0.8654478090        1.1886975533
 H         -5.9110192934        1.4732479079        2.5846353266
 O         -3.6687657554        0.7274449719        1.9354223668
 C         -2.4638415433        0.0882702967        1.7073133390
 O         -1.5840668333        0.3486900741        2.5540010778
 H          1.4172555262       -0.2609612453        0.8419481875
 C          1.1080485854       -0.2131225826       -0.1924456325
 C         -0.1186155452       -0.7342501910       -0.5766064607
 C         -0.4984834878       -0.6395424717       -1.9115208167
 C          0.3380605369       -0.0395885253       -2.8346702227
 C          1.5738059621        0.4531477075       -2.4538225934
 C          1.9598467690        0.3677388265       -1.1214852596
 N          3.2007212068        0.8689600617       -0.6967148978
 S          4.0187712373        0.0279052023        0.5184423221
 O          3.8950648794       -1.3959624032        0.3030030974
 O          3.5810817857        0.5194766556        1.8010860984
 C          5.6944288160        0.5546792503        0.2106440228
 C          6.5222934198       -0.2435212971       -0.5562090384
 C          7.8144617292        0.1854176661       -0.8158575286
 C          8.2533120665        1.3997144942       -0.3097786456
 C          7.4109518834        2.1896408625        0.4586800388
 C          6.1180217750        1.7664420699        0.7230448850
 H          5.4310133486        2.3407843451        1.3226808221
 H          7.7566783549        3.1314307728        0.8532343186
 H          9.2593691815        1.7312247790       -0.5126624637
 H          8.4726589043       -0.4279212532       -1.4098585060
 H          6.1403067887       -1.1836788272       -0.9204068580
 H          3.8114115759        1.1133280631       -1.4643158336
 H          2.2324282279        0.9055115559       -3.1798006004
 H          0.0311266114        0.0305197038       -3.8674089175
 H         -1.4531998789       -1.0407642251       -2.2144677246
 C         -0.9847437654       -1.4264908345        0.4491060878
 H         -0.4882027601       -1.3123617530        1.4230909076
 C         -1.0683078960       -2.9085286975        0.1304122292
 C          0.1521355944       -3.7540903362        0.3299395455
 C         -1.0241311297       -3.9052044339        1.2467203897
 H         -1.6293891187       -4.7957460447        1.1668949856
 H         -0.9372102063       -3.5244022634        2.2544217833
 H          0.3534255533       -4.5414217063       -0.3803672551
 H          1.0415969323       -3.2705030125        0.7087544638
 H         -1.7039701630       -3.1308781536       -0.7162824255
 O         -3.3838333895       -1.7403923130       -1.2898601609
