  62
        -98.94048038
 C         -2.3272277796       -0.3224499570        0.2103308925
 C         -3.5355215303       -0.8687341480        0.7056260910
 C         -4.7088604107        0.0129701508        0.6527522792
 C         -4.5689125350        1.2645586139        0.1785649473
 C         -5.6884475981        2.2518789782        0.0226178338
 C         -6.3217866359        2.1560405319       -1.3724291364
 C         -6.6765619722        0.7295737962       -1.7922823487
 H         -7.1432182526        0.7873934809       -2.7780424578
 H         -5.7559993169        0.1524094885       -1.9064773828
 C         -7.6164546058       -0.0019741740       -0.8238098505
 H         -8.1169218972        0.7197701133       -0.1773562130
 H         -8.3902935751       -0.5093979718       -1.4036385434
 C         -6.9358972690       -1.0672469146        0.0378710038
 H         -6.3552292680       -1.7383624026       -0.6001272470
 H         -7.7152878726       -1.6650667291        0.5177877381
 C         -6.0156240095       -0.5412913678        1.1467323563
 H         -6.5475274723        0.2000639873        1.7462676322
 H         -5.7574283397       -1.3855248472        1.7927136232
 H         -7.2200488798        2.7759191578       -1.3871356329
 H         -5.6162158361        2.5617225429       -2.1011544648
 H         -6.4393972874        2.0660537918        0.7879329024
 H         -5.2824266623        3.2554457347        0.1595646336
 O         -3.3855828549        1.7633947226       -0.2621996880
 C         -2.2380832284        0.9837221506       -0.2707626298
 O         -1.2299358905        1.5617661738       -0.7187578567
 H          1.5022512264       -0.4796193126       -0.5160005230
 C          1.2595306822       -0.2379392401        0.5047954869
 C          0.0072983453       -0.5245930235        1.0222523238
 C         -0.2598734999       -0.1897031673        2.3480575434
 C          0.7011216015        0.4199452493        3.1298917994
 C          1.9527562871        0.7014269718        2.6102457986
 C          2.2278909909        0.3766583875        1.2876408168
 N          3.4761187415        0.6847918805        0.7238931899
 S          4.1225810604       -0.3327588909       -0.4548557188
 O          3.5342311491       -0.0175571065       -1.7321160088
 O          4.0252998221       -1.7113839583       -0.0295538143
 C          5.8237163159        0.2027283283       -0.4322350015
 C          6.1507834892        1.3830011883       -1.0733077074
 C          7.4647665090        1.8217051084       -1.0394589866
 C          8.4245368436        1.0775669912       -0.3689948385
 C          8.0817291204       -0.1054829265        0.2679358667
 C          6.7687818366       -0.5493174433        0.2393699752
 H          6.4569140157       -1.4659606308        0.7135287777
 H          8.8307352063       -0.6830985013        0.7852317541
 H          9.4466638888        1.4210088310       -0.3453374888
 H          7.7353448561        2.7398568502       -1.5355255032
 H          5.3729431696        1.9221827356       -1.5887900791
 H          4.1676440848        0.9456741199        1.4133493318
 H          2.7049079606        1.1782660046        3.2201874797
 H          0.4780812119        0.6736102023        4.1554417783
 H         -1.2372822422       -0.4134874441        2.7540570021
 C         -1.0789470683       -1.1862213682        0.2116101186
 H         -1.3673416205       -2.1168488760        0.7234060756
 C         -0.6618513049       -1.5224811702       -1.2040603762
 C          0.1608796022       -2.7459236432       -1.4720037189
 C         -1.2776198758       -2.7035110691       -1.8897304510
 H         -1.5078996328       -2.6268284924       -2.9417888974
 H         -1.9905326081       -3.2877394449       -1.3262802395
 H          0.4300263863       -3.3607248267       -0.6261665361
 H          0.9265819432       -2.6938387179       -2.2318561044
 H         -0.4690008451       -0.6400774288       -1.8052447477
 O         -3.6263909901       -2.0356676180        1.1739737896
