  62
        -98.94367976
 C          1.1031590536        1.6458429393       -0.4888233346
 C         -0.0518889762        1.3708575968       -1.2567241727
 C         -1.2854675730        2.0742325439       -0.8670918607
 C         -1.2594193369        2.8931205346        0.1981960653
 C         -2.4000898725        3.6902022316        0.7698578523
 C         -3.0948512894        2.9221441955        1.9063926552
 C         -4.2154664694        1.9898105833        1.4511924213
 H         -4.5430258231        1.4229266036        2.3258103579
 H         -5.0639004600        2.5850601187        1.1057054476
 C         -3.8180325111        1.0023477913        0.3509141313
 H         -2.8268822474        0.6022046327        0.5779567678
 H         -4.5187024165        0.1641705847        0.3870243378
 C         -3.8504832669        1.6189992129       -1.0565814666
 H         -4.3740407649        2.5740158230       -1.0084920508
 H         -4.4400817763        0.9772618306       -1.7150830300
 C         -2.4862767196        1.8166058432       -1.7357440791
 H         -2.5692178076        2.6312355538       -2.4634135355
 H         -2.2246261706        0.9180120050       -2.3031312244
 H         -3.5139930090        3.6408322778        2.6139415775
 H         -2.3341694439        2.3421068211        2.4362425859
 H         -1.9632204365        4.6020910489        1.1827167350
 H         -3.1070877946        3.9618133346       -0.0088852959
 O         -0.1405846829        3.0813435107        0.9498508130
 C          1.0535508157        2.4485475056        0.6496659138
 O          1.9763138601        2.6929480610        1.4511797128
 O         -0.0515623813        0.5733689001       -2.2341243824
 C          2.3999912327        0.9326057890       -0.8389185990
 C          2.6585118055       -0.0946413773        0.2350047649
 C          3.7919301200       -0.1344103574        1.0343749819
 C          3.8909783652       -1.0701435833        2.0510018646
 C          2.8662061590       -1.9646816229        2.2996127816
 C          1.7331522432       -1.9405888125        1.4926051452
 C          1.6544735438       -1.0298611974        0.4543606638
 H          0.7761029596       -1.0095608955       -0.1730061642
 N          0.6718868368       -2.8343548793        1.6927485876
 S         -0.8850591494       -2.3798022110        1.2784848151
 O         -1.1291351410       -0.9790256323        1.5364918090
 O         -1.7306998014       -3.3047566036        2.0069983429
 C         -1.0095706900       -2.7473664550       -0.4594167766
 C         -1.9010519290       -2.0279863830       -1.2286989813
 C         -2.0274434387       -2.3343077918       -2.5739163529
 C         -1.2658091329       -3.3523403779       -3.1241709746
 C         -0.3800003961       -4.0711451043       -2.3363358321
 C         -0.2501907092       -3.7714175479       -0.9899655373
 H          0.4347254711       -4.3052674958       -0.3525030644
 H          0.2130781660       -4.8616706658       -2.7675486430
 H         -1.3612285608       -3.5833714042       -4.1734724623
 H         -2.7131420299       -1.7713405160       -3.1868138735
 H         -2.4653051367       -1.2333251423       -0.7689250619
 H          0.7083970986       -3.3769491823        2.5426788568
 H          2.9358517461       -2.6720328637        3.1118494454
 H          4.7731688470       -1.0893385934        2.6729893662
 H          4.5869012269        0.5755090901        0.8764959395
 H          2.1942572491        0.3991407835       -1.7783241943
 C          3.5384081771        1.9021946763       -1.0613779368
 C          4.7219549825        1.4825251028       -1.8797873521
 C          3.7470596255        2.4792079899       -2.4284055317
 H          4.0526501613        3.5114791533       -2.5096186753
 H          3.0744055236        2.1606286003       -3.2112313828
 H          5.7007785947        1.8309789232       -1.5873442163
 H          4.7133971751        0.4853919184       -2.2928975316
 H          3.7067019913        2.5554249080       -0.2133879052
