  62
        -98.94472033
 C          2.0192741391        1.3691530301        0.3043290213
 C          2.6465775694        0.7537463208       -0.8059534888
 C          3.7971360594       -0.1067461394       -0.4930275789
 C          4.1846052189       -0.2527959701        0.7871584811
 C          5.3023305388       -1.1413898604        1.2491949010
 C          4.7865595787       -2.5442074906        1.5997066800
 C          3.8930031891       -3.1608310700        0.5230829794
 H          3.6126998090       -4.1596130702        0.8652110987
 H          2.9711878391       -2.5790753599        0.4453755294
 C          4.5449576995       -3.2596895292       -0.8632018505
 H          5.6279185795       -3.1704938092       -0.7700905801
 H          4.3352970297       -4.2478516590       -1.2781422011
 C          4.0372671398       -2.2338424586       -1.8785055300
 H          4.3957214502       -2.5299090881       -2.8679712201
 H          2.9444916998       -2.2559416586       -1.9077619304
 C          4.4840887797       -0.7851179487       -1.6444125291
 H          5.5686962397       -0.7490838988       -1.5242221287
 H          4.2161577500       -0.2083381982       -2.5344838289
 H          4.2115607884       -2.4807466511        2.5265849299
 H          5.6452512787       -3.1940521606        1.7773344499
 H          6.0560894691       -1.2049387099        0.4670214112
 H          5.7510116885       -0.6964114508        2.1389234314
 O          3.5590348986        0.3587529993        1.8257084913
 C          2.4537277287        1.1675020694        1.6134758113
 O          1.9500645283        1.6360225288        2.6552741714
 H         -0.0585896410       -0.1514354502        0.7722613098
 C         -0.6078772208        0.2247490503       -0.0827379102
 C         -0.2895545706        1.4792535506       -0.5897782394
 C         -1.0150035603        1.9577263812       -1.6723203393
 C         -2.0039018701        1.1809028315       -2.2522309001
 C         -2.2981266202       -0.0776491188       -1.7626675509
 C         -1.5951877106       -0.5558732594       -0.6632573909
 N         -1.8991975107       -1.8247760097       -0.1430857717
 S         -3.5103898108       -2.2477824398        0.0148223475
 O         -3.5461755811       -3.1995080704        1.1031052970
 O         -4.0137334904       -2.7214607691       -1.2504323029
 C         -4.3504046709       -0.7412315200        0.4711682581
 C         -3.9591571413       -0.1046775607        1.6324518986
 C         -4.5767593215        1.0837566791        1.9860449890
 C         -5.5704179012        1.6128131795        1.1763081690
 C         -5.9565614908        0.9583402602        0.0171471285
 C         -5.3407495607       -0.2298573996       -0.3424281420
 H         -5.6074701604       -0.7700017891       -1.2361740223
 H         -6.7308926706        1.3709446005       -0.6091219415
 H         -6.0459020713        2.5405322994        1.4528022394
 H         -4.2772612618        1.5931143986        2.8880342794
 H         -3.1860370615       -0.5430211510        2.2435528086
 H         -1.3685577810       -2.0732201601        0.6782147483
 H         -3.0488080101       -0.7025161485       -2.2184690815
 H         -2.5498039098        1.5595219820       -3.1026189101
 H         -0.7984144102        2.9345089714       -2.0717126287
 C          0.8100281291        2.2612318002        0.0880603314
 H          0.4579488088        2.5444537397        1.0908651215
 C          1.2126344694        3.5158696607       -0.6584816977
 C          0.4643772193        4.7962153605       -0.4440730173
 C          1.8488727991        4.6362138202        0.1061875531
 H          2.6572626492        5.1826132105       -0.3560645963
 H          1.9667576988        4.5038028296        1.1721199631
 H          0.3234585395        5.4583019810       -1.2850170269
 H         -0.3605492809        4.7832508501        0.2519269425
 H          1.5985466697        3.3043635512       -1.6489250977
 O          2.2667040798        0.9110526014       -1.9948261889
