  62
        -98.93917850
 C         -2.3187172593       -0.7411237693        0.1013860603
 C         -2.4700433794        0.6603841306        0.2766059010
 C         -3.6576269996        1.2714264208       -0.3287539185
 C         -4.5137999596        0.5066566510       -1.0298043087
 C         -5.7576176098        0.9785732112       -1.7326158482
 C         -6.9882852197        1.0781637106       -0.8209816279
 C         -6.9690927996        2.2419323001        0.1706561826
 H         -6.7643408098        3.1700391504       -0.3638376769
 H         -7.9737658895        2.3219575398        0.5904079829
 C         -5.9662502594        2.0768881097        1.3211664424
 H         -5.6612023592        1.0303026297        1.3922856618
 H         -6.4502285992        2.3336658192        2.2661885126
 C         -4.7153825795        2.9481844199        1.2034630326
 H         -4.0617518793        2.7261497796        2.0510939623
 H         -4.9955460696        4.0023144498        1.2623187431
 C         -3.9092357097        2.7286832606       -0.0838218577
 H         -4.4285379199        3.1725890710       -0.9331103074
 H         -2.9391690398        3.2193865907        0.0293376224
 H         -7.8628828998        1.1922599708       -1.4654560377
 H         -7.0962984394        0.1372419103       -0.2767121284
 H         -5.5694655400        1.9454471214       -2.2000422478
 H         -5.9674864099        0.2472305916       -2.5159800385
 O         -4.3249302495       -0.8265882589       -1.1962092393
 C         -3.2472898393       -1.4891083590       -0.6238862799
 O         -3.2525472992       -2.7151935589       -0.8491922305
 O         -1.6492724894        1.3695289204        0.9206400312
 C         -1.1098310491       -1.3806357295        0.7616982798
 C          0.0202031908       -1.6287400189       -0.2099815206
 C         -0.1397188493       -2.4506577483       -1.3206276409
 C          0.9197245805       -2.6755036478       -2.1802504312
 C          2.1540844205       -2.0963082778       -1.9472064112
 C          2.3293005206       -1.2843229183       -0.8320260708
 C          1.2612029808       -1.0526210388        0.0236404795
 H          1.4018750508       -0.4020529692        0.8737229198
 N          3.5944601706       -0.7428350083       -0.5484459908
 S          3.7428459706        0.7450639914        0.2301148199
 O          3.3996456809        0.5813079707        1.6200441599
 O          3.0263272903        1.7683745216       -0.4987236695
 C          5.5029185905        0.9843387417        0.0743187397
 C          6.3370520908        0.2494133614        0.8959769892
 C          7.7082397507        0.4002925816        0.7663245990
 C          8.2203305104        1.2787069221       -0.1773703007
 C          7.3710840802        2.0112010024       -0.9927875802
 C          5.9980819202        1.8636585222       -0.8693777000
 H          5.2995533001        2.4162675924       -1.4770507596
 H          7.7719686000        2.6953920628       -1.7231705399
 H          9.2880759104        1.3948870323       -0.2760135908
 H          8.3715484709       -0.1657599986        1.4002180186
 H          5.8933526010       -0.4138026890        1.6199580589
 H          4.2261111905       -0.8011755078       -1.3359850610
 H          2.9791625704       -2.2756934073       -2.6197566314
 H          0.7815143304       -3.3088624274       -3.0436320715
 H         -1.1013844193       -2.9030454984       -1.5060484510
 H         -0.7560006490       -0.6355724798        1.4884212101
 C         -1.4368014788       -2.6590173199        1.5112229992
 C         -0.5130378685       -3.1149078203        2.5987830088
 C         -1.8704314785       -2.5802302706        2.9425182293
 H         -2.6258901884       -3.2687586309        3.2901209991
 H         -1.9330781985       -1.5994680208        3.3919439498
 H         -0.3336033184       -4.1729240903        2.7116204583
 H          0.3456828015       -2.4965015703        2.8152115390
 H         -1.8996941988       -3.4142248396        0.8896697989
