  62
        -98.93683137
 C         -2.1629161995       -0.9895564714       -0.0499254004
 C         -2.8572406276       -0.2717362437        0.9514509599
 C         -3.6846786526        0.8523358294        0.4886702856
 C         -3.7078733374        1.1505390552       -0.8234864172
 C         -4.5621845832        2.2092180022       -1.4609658494
 C         -6.0149151519        1.7067100736       -1.5850142303
 C         -7.0248055228        2.4813478018       -0.7380432144
 H         -7.2265694529        3.4420855159       -1.2163147728
 H         -7.9563380206        1.9114334918       -0.7375794806
 C         -6.6093931703        2.7579641022        0.7101303275
 H         -7.5094930283        3.0675014416        1.2455164717
 H         -5.9233733333        3.6058667693        0.7402043732
 C         -5.9703744103        1.5828470668        1.4613517253
 H         -6.3381927519        1.5965436930        2.4894109147
 H         -6.2810454863        0.6328539703        1.0259669760
 C         -4.4326815170        1.6301514352        1.5361816208
 H         -4.0986404684        2.6716665399        1.5270102685
 H         -4.1158681998        1.1933837438        2.4881615380
 H         -6.0368770564        0.6514299295       -1.3050415429
 H         -6.3306891248        1.7611001447       -2.6278559228
 H         -4.5214984774        3.1214190383       -0.8698067456
 H         -4.1447523690        2.4125991523       -2.4472221644
 O         -2.9977871675        0.4587935730       -1.7516088071
 C         -2.2066524173       -0.6238836972       -1.3953066471
 O         -1.6081412213       -1.1576553242       -2.3466202506
 H          0.0662655038        0.0180733953        0.9664646559
 C          0.6917596334       -0.6834122139        0.4270765128
 C          0.1459952979       -1.8941209960        0.0167175510
 C          0.9631251307       -2.7919831490       -0.6563075599
 C          2.2817804922       -2.4695577347       -0.9289219941
 C          2.8140226574       -1.2558603386       -0.5360754308
 C          2.0106123330       -0.3564969521        0.1535067032
 N          2.5375164775        0.8840275128        0.5526391815
 S          4.0045436893        0.9060478020        1.3690891463
 O          4.2175690953       -0.3163858142        2.1085527502
 O          3.9879977990        2.1297338893        2.1406665897
 C          5.2128871879        1.0560698716        0.0703843071
 C          5.1015838703        2.1237937777       -0.7985021530
 C          6.0360859946        2.2617220697       -1.8121890299
 C          7.0616805668        1.3363182666       -1.9375060735
 C          7.1615942058        0.2717656564       -1.0549515911
 C          6.2295064418        0.1276989341       -0.0388850726
 H          6.2645324637       -0.6862345581        0.6676624306
 H          7.9598207755       -0.4461214234       -1.1540910790
 H          7.7872883182        1.4460448366       -2.7279204004
 H          5.9612635666        3.0882992847       -2.5003637432
 H          4.2919324068        2.8217879283       -0.6646233231
 H          1.8654479944        1.4808403242        1.0125419501
 H          3.8381227370       -1.0000935813       -0.7530064525
 H          2.9032153753       -3.1738582442       -1.4605435778
 H          0.5672097827       -3.7423744618       -0.9737071842
 C         -1.2989429440       -2.1700779197        0.3550423295
 H         -1.3822657906       -2.2304079485        1.4508624368
 C         -1.8336983406       -3.4531116564       -0.2445421509
 C         -1.6047615923       -4.7617818527        0.4489330392
 C         -2.9721967036       -4.1494492445        0.4367718624
 H         -3.7379300383       -4.6043968699       -0.1734069166
 H         -3.3461964365       -3.7113000832        1.3508455621
 H         -1.0509094716       -4.7459079142        1.3755062147
 H         -1.4336115332       -5.6416536482       -0.1525666010
 H         -1.8336505247       -3.4379743677       -1.3284743974
 O         -2.7820727307       -0.5536259817        2.1794833940
