  62
        -98.93561954
 C          2.6365932549       -1.0350677600       -0.7488784272
 C          2.5997675854        0.2677673100       -1.3092633971
 C          3.7495750153        1.1355900694       -1.0292755527
 C          4.7586913607        0.6606895982       -0.2768511871
 C          5.9713674224        1.4462272872        0.1289016373
 C          5.7515011610        2.1525189105        1.4738263686
 C          4.4400604571        2.9341835656        1.5538071851
 H          3.6023881699        2.2334223543        1.5151022508
 H          4.4077279289        3.4163964232        2.5333071202
 C          4.2642423979        3.9935342847        0.4567549479
 H          3.8933050586        4.9128359061        0.9148607289
 H          5.2300298754        4.2230535403        0.0050997644
 C          3.2696301851        3.6112139005       -0.6411378822
 H          3.0566211812        4.5056674115       -1.2327920913
 H          2.3286931568        3.2885285047       -0.1870706456
 C          3.7357203419        2.5200177839       -1.6133685704
 H          3.0229942773        2.4877855863       -2.4426201713
 H          4.7180013210        2.7794582451       -2.0136009730
 H          6.5906348672        2.8277688556        1.6506533941
 H          5.7486348720        1.3987860649        2.2645795760
 H          6.1992616962        2.1770475246       -0.6445887841
 H          6.8115485718        0.7563983146        0.2242682282
 O          4.7630138051       -0.5910113091        0.2427362031
 C          3.7005470457       -1.4671898083        0.0441982500
 O          3.8474014598       -2.5628299249        0.6139990623
 O          1.6458366823        0.6796845748       -2.0243814756
 C          1.4402123353       -1.9244836185       -1.0376250728
 C          0.3785837262       -1.7159410374        0.0123642153
 C          0.6684696832       -1.8545689882        1.3663920838
 C         -0.3118830460       -1.6356489491        2.3168205516
 C         -1.5935840273       -1.2710425062        1.9417438344
 C         -1.8891713469       -1.1151153833        0.5944699143
 C         -0.9035078942       -1.3412235946       -0.3592936608
 H         -1.1313443756       -1.2038803406       -1.4077600339
 N         -3.1910874473       -0.7538744083        0.1978426274
 S         -3.9393885646        0.5031534254        1.0473393356
 O         -3.0501735834        1.6400634510        1.1386003444
 O         -4.4258546662       -0.0188984501        2.2994811971
 C         -5.3103433616        0.8605582292       -0.0324454678
 C         -5.1697192715        1.8379265586       -0.9994383943
 C         -6.2296682843        2.0893693972       -1.8563948504
 C         -7.4036522144        1.3611417782       -1.7342472494
 C         -7.5294250784        0.3836168643       -0.7583790551
 C         -6.4740565515        0.1276810662        0.1024390048
 H         -6.5281077048       -0.6156354707        0.8804386397
 H         -8.4447717234       -0.1781903801       -0.6656171261
 H         -8.2263760131        1.5593379120       -2.4028679526
 H         -6.1355876291        2.8504923519       -2.6142021701
 H         -4.2422100338        2.3859078307       -1.0530608347
 H         -3.2406388840       -0.5753354388       -0.7967852135
 H         -2.3603721240       -1.0875174131        2.6766809944
 H         -0.0758427897       -1.7469580875        3.3648278298
 H          1.6696549488       -2.1307416824        1.6628061771
 H          1.0370560339       -1.5441518021       -1.9899424514
 C          1.7993480245       -3.3870933052       -1.2536118787
 C          1.4128421132       -4.4876462368       -0.3164527188
 C          0.7295888959       -4.3645888196       -1.6430892947
 H          0.9456187330       -5.0924235124       -2.4102644927
 H         -0.2893573635       -4.0070129867       -1.6445196141
 H          2.1243579741       -5.2850466639       -0.1662956920
 H          0.8532010410       -4.2342788862        0.5698991587
 H          2.7600329359       -3.4966712543       -1.7460173979
