  62
        -98.95136027
 C         -1.8414517205       -1.2278428006       -0.2937494099
 C         -2.9223752305       -0.5242062009        0.2849647403
 C         -3.2051864504        0.7949363094       -0.2890533691
 C         -2.4604067703        1.2516479999       -1.3125164588
 C         -2.6092946202        2.5875183402       -1.9874532482
 C         -1.8776741302        3.7187388598       -1.2513195376
 C         -2.5553303604        4.1986521992        0.0329557025
 H         -2.0802740004        5.1414372791        0.3118972030
 H         -3.6079804703        4.4073209694       -0.1640875675
 C         -2.4300033205        3.2221051487        1.2107943421
 H         -2.1545738506        3.7750632683        2.1126764324
 H         -1.6140914305        2.5216505488        1.0135481019
 C         -3.7065051906        2.4432082786        1.5314972016
 H         -3.4861055807        1.7506530882        2.3481879913
 H         -4.4791191006        3.1349908684        1.8760753719
 C         -4.2687524505        1.6292776091        0.3589207412
 H         -5.0319228105        0.9509635890        0.7493477008
 H         -4.7304429504        2.2928217395       -0.3718935186
 H         -1.8022374802        4.5650936801       -1.9384402372
 H         -0.8641331803        3.3825932497       -1.0160995977
 H         -2.1735685301        2.4848439906       -2.9836094882
 H         -3.6655028102        2.8378820902       -2.0917828982
 O         -1.4625647203        0.5229372201       -1.8748322490
 C         -1.0954737203       -0.7030698702       -1.3483607096
 O         -0.1142308803       -1.2309514699       -1.9090844597
 H         -0.2362816906       -0.4380489415        1.4679645006
 C          0.4657457994       -1.2462313414        1.3227774003
 C          0.0413790494       -2.4383168411        0.7494191898
 C          0.9681000994       -3.4620464311        0.5963999094
 C          2.2871944394       -3.2788835813        0.9759500496
 C          2.7165878793       -2.0674687515        1.4866271802
 C          1.7936569494       -1.0421946216        1.6551360306
 N          2.1716206693        0.2326965582        2.1312420012
 S          2.0473249995        1.4854373087        1.0185053118
 O          2.5369114694        2.6572860184        1.7134104823
 O          0.7044517895        1.5621375590        0.5083036817
 C          3.2071725596        1.0321311992       -0.2587289783
 C          2.8378199897        0.1147033097       -1.2217244488
 C          3.7863298998       -0.2912838399       -2.1491720289
 C          5.0740538398        0.2188629800       -2.0978566685
 C          5.4270441597        1.1412081796       -1.1238479081
 C          4.4877992496        1.5480479292       -0.1909027380
 H          4.7134357095        2.2639757288        0.5831058924
 H          6.4279725597        1.5401090195       -1.0871213078
 H          5.8052297498       -0.1036799896       -2.8222890786
 H          3.5034669898       -1.0077957696       -2.9036084992
 H          1.8281686997       -0.2664170403       -1.2516469891
 H          3.0969303693        0.2541529080        2.5391927613
 H          3.7523401193       -1.9123341317        1.7491115104
 H          2.9952286694       -4.0834474813        0.8491597193
 H          0.6586873694       -4.4024449809        0.1701633189
 C         -1.4003726505       -2.5462816609        0.3148606596
 H         -2.0281017106       -2.6840849613        1.2083730794
 C         -1.6536625605       -3.6931812005       -0.6416740910
 C         -1.9905843806       -5.0575268707       -0.1200709117
 C         -3.0480928005       -4.2245046704       -0.7776768214
 H         -3.3980671204       -4.5095433399       -1.7584064915
 H         -3.8095962505       -3.7758373706       -0.1564732112
 H         -2.0426252407       -5.1854165712        0.9505993983
 H         -1.6171336305       -5.9197951405       -0.6516279120
 H         -1.0558661204       -3.6195680301       -1.5432995909
 O         -3.6091512606       -0.9734057013        1.2436827601
