  62
        -98.94320279
 C         -1.4665932530       -1.5276906574        0.1649740082
 C         -2.4682025686       -0.9992080244        1.0180314052
 C         -3.2534787633        0.1164177811        0.4795191684
 C         -2.9769516682        0.5948299953       -0.7472677201
 C         -3.7378347379        1.6770949877       -1.4652626778
 C         -3.3132041246        3.1058730451       -1.1022649015
 C         -3.7173712921        3.5718033835        0.2964551974
 H         -3.5400766447        4.6482422549        0.3411087633
 H         -4.7869718142        3.4140299113        0.4383864782
 C         -2.9396817141        2.8941232964        1.4334590352
 H         -2.0439601334        2.4166677086        1.0286800601
 H         -2.6052263410        3.6488956201        2.1488150324
 C         -3.7448281223        1.8551502973        2.2142007900
 H         -3.0931537880        1.4110721612        2.9713779449
 H         -4.5727896916        2.3455710448        2.7311552666
 C         -4.3122946768        0.7194848242        1.3522900244
 H         -5.1424832419        1.0852339309        0.7480190129
 H         -4.6828768168       -0.0640235701        2.0180684905
 H         -2.2304828710        3.1824024548       -1.2087398657
 H         -3.7719085815        3.7768534326       -1.8321501356
 H         -3.5576831419        1.5257805857       -2.5317366499
 H         -4.8048776273        1.5549349289       -1.2749840453
 O         -1.9645350873        0.1053100691       -1.5081288843
 C         -1.1734236187       -0.9528244592       -1.0736578428
 O         -0.2748837728       -1.2674135567       -1.8723498962
 O         -2.7000445359       -1.4453788895        2.1740788174
 C         -0.6576407159       -2.7066265809        0.6762790761
 C          0.8137362809       -2.4504428264        0.4744712947
 C          1.6287459685       -3.2267807379       -0.3375336306
 C          2.9666182006       -2.9085869253       -0.4969876381
 C          3.5209012832       -1.8198006351        0.1501324801
 C          2.7131864586       -1.0355665768        0.9642153491
 C          1.3745863745       -1.3561175919        1.1229296852
 H          0.7448922236       -0.7397341207        1.7536934369
 N          3.2677902445        0.0811251497        1.6271075963
 S          3.8858925333        1.3069176993        0.6672974033
 O          5.0208340313        0.8038457892       -0.0625437216
 O          4.1418492262        2.4052853131        1.5714406032
 C          2.5687012107        1.7359312191       -0.4542004394
 C          1.7170069043        2.7659899682       -0.1082861525
 C          0.6655650837        3.0774605859       -0.9542278046
 C          0.4766221466        2.3467844539       -2.1176636618
 C          1.3360585989        1.3105093039       -2.4467380498
 C          2.3945670093        0.9997070702       -1.6086800230
 H          3.0811684589        0.2009037313       -1.8359061635
 H          1.1751183892        0.7309577562       -3.3406710288
 H         -0.3467679053        2.5803110637       -2.7747998340
 H         -0.0000541314        3.8881720144       -0.7008620708
 H          1.9015937355        3.3110195755        0.8038426555
 H          2.6419145444        0.4852597115        2.3099368824
 H          4.5570731900       -1.5510112233        0.0230634006
 H          3.5869712974       -3.5168152892       -1.1378206286
 H          1.2113125625       -4.0668122927       -0.8674592708
 H         -0.8525996074       -2.7195617973        1.7619925409
 C         -1.1145251532       -4.0562081965        0.1430595464
 C         -2.5468266075       -4.2911691902       -0.2306913507
 C         -1.4892674793       -4.2733491431       -1.2912227432
 H         -1.2156013610       -5.2099385904       -1.7549032815
 H         -1.4386435047       -3.4261699394       -1.9565936758
 H         -2.9982654052       -5.2357333012        0.0334568129
 H         -3.2242429115       -3.4517355013       -0.1694033584
 H         -0.6097083386       -4.8774107797        0.6429919504
