  62
        -98.93750884
 C         -1.8296642702       -0.2759273000       -0.3017455910
 C         -2.9462089002       -0.5330789596       -1.1285181311
 C         -4.2601189502       -0.5697879799       -0.4631155610
 C         -4.3231014101       -0.3737491405        0.8656479091
 C         -5.5564383101       -0.3207281709        1.7244383392
 C         -6.0452062200        1.1287935590        1.8855036699
 C         -6.9925436901        1.6154662796        0.7895114102
 H         -7.9579825501        1.1177131296        0.9026216400
 H         -7.1543210800        2.6837563595        0.9507528307
 C         -6.4990035701        1.4043838003       -0.6442156499
 H         -5.4413406901        1.6654301103       -0.7119083499
 H         -7.0441569701        2.0946654306       -1.2909655096
 C         -6.7168167902       -0.0284626594       -1.1526337606
 H         -7.2269890302        0.0037445211       -2.1176412806
 H         -7.3841827102       -0.5519423698       -0.4682417509
 C         -5.4369569702       -0.8523809794       -1.3569238411
 H         -5.6828705503       -1.9173038394       -1.2841950016
 H         -5.0580864803       -0.6902809589       -2.3710811311
 H         -6.5619448600        1.2197168886        2.8430557600
 H         -5.1652537300        1.7757267990        1.9261709402
 H         -6.3373791201       -0.9566491707        1.3182613189
 H         -5.2675884100       -0.7012497114        2.7063709590
 O         -3.2194117301       -0.1358059109        1.6268556591
 C         -1.9518384301       -0.0786432007        1.0735199591
 O         -1.0405367100        0.1475409689        1.8907964292
 O         -2.8510194503       -0.7243422790       -2.3720458412
 C         -0.4479715802       -0.2190359597       -0.9245470810
 C          0.4645287198       -1.2493292901       -0.3060438316
 C         -0.0265274302       -2.5264729102       -0.0461801522
 C          0.7809715298       -3.4941512605        0.5176270573
 C          2.1041250098       -3.2175625907        0.8140749173
 C          2.6107966798       -1.9538289606        0.5415926079
 C          1.7912793098       -0.9776568703       -0.0098617715
 H          2.2050208698       -0.0036722302       -0.2113127011
 N          3.9461625899       -1.6384664908        0.8327079080
 S          4.8419460098       -0.7335630002       -0.2525659616
 O          4.4355183598       -0.9798091895       -1.6162832217
 O          6.2201195498       -1.0459496704        0.0633343282
 C          4.5300153599        0.9628998596        0.1869648493
 C          4.4787129199        1.9113446901       -0.8152131002
 C          4.2909569899        3.2414025299       -0.4722069795
 C          4.1580172400        3.5975204492        0.8608464306
 C          4.2130525500        2.6326266287        1.8553335702
 C          4.4055286800        1.3020542089        1.5196091295
 H          4.4502163100        0.5279957985        2.2673239591
 H          4.1055353401        2.9128059382        2.8909008103
 H          4.0090778501        4.6324305491        1.1259642412
 H          4.2477463599        3.9927011803       -1.2449372192
 H          4.5745601998        1.5888159806       -1.8398181004
 H          4.4882106898       -2.3977645510        1.2187925576
 H          2.7380561998       -3.9732245109        1.2528237869
 H          0.3805522398       -4.4759464206        0.7217384468
 H         -1.0572203802       -2.7492403700       -0.2868601623
 H         -0.5911828903       -0.4875133492       -1.9825879712
 C          0.0979113099        1.1921617802       -0.8512020604
 C          1.0239908198        1.7070690207       -1.9108489002
 C         -0.3874211802        2.2052646107       -1.8429122198
 H         -0.5626416401        3.2155185005       -1.5052714293
 H         -1.0880668002        1.8669244311       -2.5923997900
 H          1.8171758199        2.3770265305       -1.6153253399
 H          1.2916359198        1.0344897411       -2.7121867105
 H          0.2533170199        1.5231620297        0.1697871998
