  62
        -98.93749224
 C         -1.6006274494       -1.3140467510       -0.0847380398
 C         -2.8276416194       -1.2334423711        0.6140530301
 C         -3.7096586095       -0.0997139111        0.2804706001
 C         -3.3036951495        0.7908718189       -0.6424067999
 C         -4.0187411596        2.0213536288       -1.1398535500
 C         -5.5098791596        1.8530489386       -1.4722725701
 C         -6.4355870597        2.5792394486       -0.4950754701
 H         -5.9908004898        3.5448916286       -0.2460582301
 H         -7.3858062697        2.7781064985       -0.9958191302
 C         -6.7436293297        1.8172283986        0.7927677399
 H         -7.4076231596        0.9799146785        0.5665684699
 H         -7.2898289098        2.4937967285        1.4543508398
 C         -5.5246060397        1.2762052687        1.5431934999
 H         -5.8137422897        1.1341230487        2.5867609399
 H         -4.7148589397        2.0045269088        1.5348808200
 C         -5.0239602495       -0.0752966113        1.0126065300
 H         -4.8845359695       -0.7671642912        1.8492524100
 H         -5.7877118195       -0.5300492713        0.3743916700
 H         -5.6795805696        2.2663636986       -2.4678322201
 H         -5.7627700695        0.7946068086       -1.5161736500
 H         -3.8909187097        2.8205902688       -0.4061524200
 H         -3.4719806696        2.3272777688       -2.0344919800
 O         -2.0983294995        0.6879437690       -1.2714116599
 C         -1.2263102494       -0.3606072909       -1.0300049998
 O         -0.1844892794       -0.3237607309       -1.7110973198
 O         -3.1754018794       -2.0766019211        1.4839507901
 C         -0.6635282593       -2.4699141309        0.2233765902
 C          0.6293471907       -1.9001237007        0.7481732103
 C          0.6620457306       -1.3635048407        2.0330218703
 C          1.8058098005       -0.7581744506        2.5179547803
 C          2.9364458505       -0.6543031305        1.7251284603
 C          2.9075191906       -1.1755415705        0.4391412303
 C          1.7679099607       -1.8124689206       -0.0349581597
 H          1.7651855408       -2.2069823207       -1.0382960597
 N          4.0299166906       -1.0392970804       -0.3942566596
 S          4.8504109105        0.4153909096       -0.3815671296
 O          5.4343989805        0.5328428197       -1.7002705696
 O          5.7912721304        0.4234969598        0.7129445104
 C          3.6436159303        1.7087001795       -0.1224411897
 C          2.4308814904        1.6696451794       -0.7810871197
 C          1.5257882003        2.6989397593       -0.5748131598
 C          1.8472818201        3.7504330894        0.2686973202
 C          3.0727552201        3.7791054095        0.9164698702
 C          3.9779222202        2.7485664996        0.7230521903
 H          4.9357882102        2.7237141697        1.2171487103
 H          3.3229629800        4.5970775896        1.5727757802
 H          1.1380745801        4.5485929093        0.4221991101
 H          0.5698601603        2.6568470392       -1.0735163598
 H          2.1697390905        0.8470001394       -1.4277809497
 H          3.8744813807       -1.3578008605       -1.3396694096
 H          3.8343497904       -0.1756611004        2.0819084804
 H          1.8175239904       -0.3529311105        3.5182367703
 H         -0.2292287795       -1.4183733008        2.6425904302
 H         -1.1494540893       -3.0347601709        1.0301125402
 C         -0.4999403091       -3.3767631009       -0.9781271797
 C          0.0617427710       -4.7541420608       -0.7950476297
 C         -1.3902720990       -4.5732981710       -1.1180815497
 H         -1.7376463590       -4.8437969810       -2.1040471997
 H         -2.1156059590       -4.7490233210       -0.3374002098
 H          0.7122377511       -5.1534601808       -1.5583438996
 H          0.3253148310       -5.0539775408        0.2078022904
 H         -0.2498823892       -2.8412531609       -1.8868689897
