  62
        -98.94799770
 C         -1.2767290009       -1.0306397461       -0.0083864384
 C         -1.6314154657        0.0674168392        0.8105876547
 C         -2.6889587543        0.9435294280        0.2920072129
 C         -3.2015212102        0.7016233703       -0.9283377544
 C         -4.3122055697        1.4870027269       -1.5624274408
 C         -5.6833692377        0.8822380903       -1.2289883578
 C         -5.8884542117        0.5982877349        0.2589835280
 H         -6.8996871433        0.2035049020        0.3780583277
 H         -5.1967484369       -0.1879233841        0.5696041064
 C         -5.7064142412        1.8210446689        1.1689252689
 H         -5.7736124470        2.7356435599        0.5786626588
 H         -6.5221092651        1.8424860184        1.8946374341
 C         -4.4010122860        1.8288320282        1.9664269434
 H         -4.4713118835        2.6117346690        2.7262318055
 H         -4.2852906688        0.8752934157        2.4876635763
 C         -3.1253446424        2.0928856867        1.1562046931
 H         -2.3083355630        2.2623177009        1.8641278181
 H         -3.2469871518        2.9985957196        0.5577971648
 H         -6.4566602618        1.5673860540       -1.5811437351
 H         -5.7877091617       -0.0581387541       -1.7750573288
 H         -4.2626833074        2.5183362763       -1.2177743774
 H         -4.1694044816        1.4700272152       -2.6443973396
 O         -2.7909915020       -0.3257152070       -1.7148474514
 C         -1.8204428673       -1.2168035166       -1.2788966849
 O         -1.5370743772       -2.1090266355       -2.1007722387
 O         -1.0855410550        0.3033366490        1.9230350901
 C         -0.2017109302       -1.9871504276        0.4712479615
 C          1.0193382948       -1.9004440592       -0.4119990034
 C          1.7857855442       -3.0019346642       -0.7719464511
 C          2.9139359589       -2.8412134728       -1.5580273044
 C          3.3198140038       -1.5863625213       -1.9750382705
 C          2.5630131159       -0.4775697480       -1.6143302057
 C          1.4210927151       -0.6458577039       -0.8488616883
 H          0.8258447072        0.2201839941       -0.6041459796
 N          2.9350078939        0.8200072607       -1.9983852443
 S          2.6992696106        2.0786350500       -0.9207571815
 O          1.3106860009        2.4652123790       -0.8914063644
 O          3.6258523924        3.1004110631       -1.3616652207
 C          3.2277151843        1.4278321915        0.6546737805
 C          2.3179252218        1.1315691286        1.6483791999
 C          2.7794619883        0.5729136697        2.8307385707
 C          4.1315489672        0.3220561117        2.9999442312
 C          5.0348978203        0.6342853397        1.9948386090
 C          4.5803870011        1.1893806874        0.8107341444
 H          5.2514942823        1.4564331268        0.0105965413
 H          6.0873030093        0.4437248937        2.1297727169
 H          4.4821583698       -0.1168865354        3.9206742199
 H          2.0690012344        0.3335355479        3.6060915386
 H          1.2672894696        1.3263854917        1.4979802432
 H          3.8254447389        0.8879305587       -2.4687876255
 H          4.2047386259       -1.4636174228       -2.5801894020
 H          3.4933780985       -3.7065854872       -1.8413919125
 H          1.4953738119       -3.9866886342       -0.4447897143
 H          0.0875872058       -1.6211836059        1.4688252327
 C         -0.7512406783       -3.3915649753        0.6092300298
 C         -0.2111526908       -4.3162624474        1.6579546662
 C         -1.5800889006       -3.7273151210        1.8118638456
 H         -2.4390801802       -4.3687094817        1.6838159878
 H         -1.7235903424       -2.9489124774        2.5472521693
 H         -0.1317191647       -5.3676515007        1.4261413318
 H          0.5739202485       -3.9429698030        2.2978438513
 H         -1.0557472370       -3.8131775513       -0.3419042298
