  62
        -98.94666816
 C          1.1755902895        1.3661371163        0.2790718085
 C          1.3642390099        0.3201244937       -0.6566719388
 C          2.3496550880       -0.7021384049       -0.2798068551
 C          2.9408098463       -0.6585036444        0.9268622571
 C          3.9509864277       -1.6385063518        1.4584087107
 C          5.3916316006       -1.3403624424        1.0202935705
 C          5.6991401867       -1.6452961531       -0.4464706623
 H          6.7839612676       -1.6005497375       -0.5618267369
 H          5.3901460438       -2.6652230721       -0.6773257343
 C          5.0571141560       -0.6718618002       -1.4450444782
 H          5.7989002859       -0.3731467541       -2.1892919813
 H          4.7475713737        0.2357748077       -0.9217494064
 C          3.8575068883       -1.2394056752       -2.2045194804
 H          4.1840889284       -2.0673393484       -2.8377142129
 H          3.4631169680       -0.4543807636       -2.8547259009
 C          2.7150867112       -1.7316962025       -1.3057819846
 H          1.8355930142       -1.9051043217       -1.9300181747
 H          2.9954790672       -2.6680985619       -0.8253006485
 H          5.6112494258       -0.2906379264        1.2284465977
 H          6.0542786243       -1.9471782003        1.6417278194
 H          3.9029112145       -1.5769271658        2.5477241965
 H          3.6850916350       -2.6507559327        1.1528040780
 O          2.6597897075        0.3087271459        1.8388281723
 C          1.8129631428        1.3559146796        1.5249573152
 O          1.7017214839        2.2081642374        2.4287602975
 H         -1.2692509212        0.8649543704       -1.3951991508
 C         -1.8142179321        1.3167465254       -0.5795515738
 C         -1.1675294702        2.2221224419        0.2500111348
 C         -1.8736692057        2.7671043190        1.3158615574
 C         -3.1939140536        2.4165412305        1.5427149576
 C         -3.8340901359        1.5099223997        0.7160582792
 C         -3.1312241228        0.9537743496       -0.3443199517
 N         -3.7590714071       -0.0197422893       -1.1588710488
 S         -3.9756491170       -1.5009215454       -0.4073344679
 O         -4.4317900900       -2.4073097107       -1.4358271890
 O         -4.8552326377       -1.3173765609        0.7187674403
 C         -2.3568620181       -1.9914275726        0.1630620562
 C         -1.6301403985       -2.8983153924       -0.5811542929
 C         -0.3649333512       -3.2598595977       -0.1491293348
 C          0.1568174367       -2.6951588515        1.0038614326
 C         -0.5770469977       -1.7704400357        1.7297215149
 C         -1.8491789682       -1.4163461701        1.3113685268
 H         -2.4510915183       -0.7127683359        1.8635157295
 H         -0.1599878951       -1.3185750353        2.6165821396
 H          1.1409314502       -2.9750931467        1.3437032765
 H          0.2114771640       -3.9758157205       -0.7124866006
 H         -2.0737146711       -3.3124591206       -1.4724947473
 H         -3.2620227401       -0.1720829203       -2.0267189709
 H         -4.8520538198        1.2031741279        0.8927325382
 H         -3.7286191286        2.8496555741        2.3744978868
 H         -1.3740678426        3.4573405241        1.9802242410
 C          0.2821622498        2.5712297684        0.0200994534
 H          0.5689920936        3.3179981326        0.7722511780
 C          0.4952333926        3.1722129074       -1.3559587622
 C          0.0900790100        4.5937062774       -1.5980417974
 C          1.5422711421        4.2270934206       -1.5402211888
 H          2.1143464998        4.2310915811       -2.4559497380
 H          2.1098678843        4.5265242217       -0.6708694254
 H         -0.3266004945        5.1436116533       -0.7676989723
 H         -0.3378118140        4.8519978814       -2.5545081088
 H          0.3587690790        2.4652562077       -2.1633115964
 O          0.7638149957        0.2226965835       -1.7601271834
