  62
        -98.93903666
 C          2.2147316835        1.1551343314        0.4517692261
 C          2.2998842473        0.2325142830       -0.6155799767
 C          3.0904079256       -0.9923364192       -0.3742014233
 C          3.6561023190       -1.1726534973        0.8338964214
 C          4.5350315116       -2.3061003982        1.2916319304
 C          5.9645711855       -2.2086779782        0.7337924555
 C          6.0553704784       -1.8380569410       -0.7441826603
 H          5.5503057688       -0.8841751877       -0.9063430771
 H          7.1114903605       -1.6912410336       -0.9848675642
 C          5.4967856373       -2.8784453137       -1.7119835327
 H          5.7017973081       -2.5227734894       -2.7248454577
 H          6.0336296540       -3.8198268816       -1.5754805813
 C          3.9960598912       -3.1567069111       -1.6025880281
 H          3.7754184692       -3.7928228428       -0.7494238403
 H          3.7029802534       -3.7216226252       -2.4924642288
 C          3.1158991745       -1.9108135488       -1.5719753985
 H          3.3607513369       -1.2774370545       -2.4322505771
 H          2.0729756233       -2.2155787222       -1.7283138632
 H          6.4662755344       -3.1625990666        0.9042290966
 H          6.4956566019       -1.4410797293        1.3017895923
 H          4.0806026113       -3.2580456331        1.0330353887
 H          4.5824502369       -2.2459009943        2.3812836784
 O          3.5218944750       -0.2649781272        1.8441283058
 C          2.8025272403        0.9039824104        1.6895221230
 O          2.7513297053        1.6209366640        2.7105622880
 O          1.7483016088        0.4178085527       -1.7320242865
 C          1.4224136945        2.4393053535        0.2842764940
 C         -0.0098078739        2.1127407949       -0.0647115702
 C         -0.7061734942        2.7185390818       -1.1016136416
 C         -2.0128757764        2.3520206302       -1.3755367455
 C         -2.6541536053        1.3862974063       -0.6222590241
 C         -1.9692994579        0.7793264643        0.4225989824
 C         -0.6626243078        1.1502840051        0.6961015879
 H         -0.1281031795        0.6722346222        1.5091907609
 N         -2.6167375775       -0.1968373708        1.2041639964
 S         -3.2965994756       -1.5065877693        0.3976466671
 O         -3.3229725997       -2.5758958894        1.3727350995
 O         -2.6099670222       -1.7847239385       -0.8425867378
 C         -4.9657623636       -0.9788162627        0.0728935602
 C         -5.7500949063       -0.6069422997        1.1473152148
 C         -7.0528423020       -0.1965591556        0.9139581552
 C         -7.5469656791       -0.1675529158       -0.3818183588
 C         -6.7477733736       -0.5472886694       -1.4492525305
 C         -5.4431257412       -0.9581416451       -1.2228608787
 H         -4.7823914139       -1.2568090072       -2.0212117050
 H         -7.1335538823       -0.5243210387       -2.4557782247
 H         -8.5611560579        0.1527796479       -0.5608732119
 H         -7.6772958338        0.0992662978        1.7414606632
 H         -5.3280508346       -0.6480128137        2.1375604675
 H         -2.0556298310       -0.5237741082        1.9780690733
 H         -3.6691225951        1.0942762981       -0.8368388899
 H         -2.5391286165        2.8252126965       -2.1904049729
 H         -0.2224235812        3.4692468185       -1.7043517697
 H          1.4299447732        2.9303490846        1.2686785858
 C          2.1015580690        3.3473348188       -0.7193138828
 C          1.9532477429        4.8345197776       -0.6128301953
 C          3.2582798444        4.1848238317       -0.2664381456
 H          4.0952447038        4.3137506802       -0.9361534742
 H          3.5396000265        4.1182901003        0.7747579311
 H          1.8972614574        5.4137528888       -1.5220267546
 H          1.3501482017        5.2199555085        0.1951630660
 H          2.1603691778        2.9042175681       -1.7067626692
