  62
        -98.94484964
 C         -2.4459513161       -1.1928992863       -0.0895714496
 C         -3.2324212105       -0.5207313708        0.8839511601
 C         -3.9254096003        0.6951406735        0.4431622616
 C         -3.7938949189        1.0969249586       -0.8337130519
 C         -4.3944328905        2.3463768429       -1.4080267853
 C         -3.4251071302        3.5310865134       -1.2923555292
 C         -2.8254335502        3.7066134675        0.1030996741
 H         -2.1742365767        2.8561294596        0.3214180672
 H         -2.1871045270        4.5925161021        0.0719345883
 C         -3.8611980318        3.8599698521        1.2260290205
 H         -3.5471313122        4.6760594022        1.8799796169
 H         -4.8272411612        4.1369859929        0.8024837699
 C         -4.0299443636        2.6219821334        2.1088797586
 H         -4.6068900677        2.9104595582        2.9914249231
 H         -3.0495507854        2.2834137024        2.4538319565
 C         -4.7496428524        1.4328747813        1.4601568853
 H         -5.6926934298        1.7667571793        1.0230989737
 H         -4.9717091534        0.7081504549        2.2486983969
 H         -3.9558899099        4.4406972120       -1.5795689613
 H         -2.6042274358        3.3789543432       -1.9976013270
 H         -4.6138337964        2.1700499349       -2.4624263417
 H         -5.3223844062        2.5703530449       -0.8854849918
 O         -3.0506200829        0.4205313090       -1.7436788664
 C         -2.3417667605       -0.7208813901       -1.3978073569
 O         -1.6877179181       -1.1986915497       -2.3481385046
 O         -3.3515246052       -0.9270055074        2.0703267790
 C         -1.6907926050       -2.4264052239        0.3827890338
 C         -0.2586217755       -2.0491505087        0.6769605611
 C          0.2050986244       -1.9737841960        1.9853202854
 C          1.4990180087       -1.5616025582        2.2526560898
 C          2.3515814699       -1.2048026334        1.2230288423
 C          1.8935574340       -1.2682833663       -0.0861466757
 C          0.6056628227       -1.7044622340       -0.3530360193
 H          0.2523911973       -1.7300426821       -1.3733347878
 N          2.7443645491       -0.8599373259       -1.1388227568
 S          3.1143847114        0.7849712591       -1.1230450840
 O          2.0590778225        1.5572083650       -0.5050302539
 O          3.4456633405        1.1242341218       -2.4900364612
 C          4.5916135368        0.8660885388       -0.1318345815
 C          5.7059610167        0.1771729722       -0.5699973009
 C          6.8639194055        0.2262748508        0.1894510385
 C          6.8887477512        0.9615268778        1.3654750827
 C          5.7627262741        1.6504617875        1.7895534904
 C          4.6003446147        1.6042146194        1.0352653186
 H          3.6983075931        2.1177653535        1.3274114105
 H          5.7836256511        2.2218716151        2.7036202269
 H          7.7910700149        0.9979253000        1.9551826363
 H          7.7415351495       -0.3078805159       -0.1370484820
 H          5.6436272794       -0.3767592106       -1.4916880144
 H          2.3669442548       -1.0968066778       -2.0470303290
 H          3.3568762727       -0.8714558021        1.4234351520
 H          1.8446654384       -1.5093640011        3.2737566189
 H         -0.4664166740       -2.2193325164        2.7952603324
 H         -2.1657546620       -2.7053467038        1.3328620269
 C         -1.7879272317       -3.6036087574       -0.5656543722
 C         -1.4969499557       -4.9780248378       -0.0443474617
 C         -2.9017103281       -4.5907554115       -0.3940231797
 H         -3.3520327986       -5.0158002114       -1.2784237146
 H         -3.6004409381       -4.4205030472        0.4119901491
 H         -0.9795761857       -5.6730552393       -0.6875085655
 H         -1.2428814027       -5.0714685470        1.0005574109
 H         -1.4848252883       -3.3729226774       -1.5784159176
