  62
        -98.93787806
 C         -1.7816247111       -0.5231377488       -0.4308486070
 C         -2.8847483904       -1.2261734938        0.1079984599
 C         -4.2210709177       -0.7238343480       -0.2510281893
 C         -4.3268255168        0.3496786807       -1.0528906014
 C         -5.5774742627        1.0040012573       -1.5852067449
 C         -6.7504677446        1.1908869723       -0.6133058694
 C         -6.3491017991        1.4538256359        0.8453957961
 H         -5.2802555442        1.6659823898        0.9068656647
 H         -6.8775777034        2.3389189180        1.2045539356
 C         -6.6940601422        0.2902692970        1.7780439273
 H         -7.6913234893       -0.0766119125        1.5255863317
 H         -6.7334815798        0.6630661618        2.8043978112
 C         -5.7111054604       -0.8796141916        1.7589005868
 H         -4.7686937653       -0.5786331753        2.2242054565
 H         -6.1296410999       -1.6803956913        2.3732037501
 C         -5.3829668062       -1.4467609260        0.3679938783
 H         -5.0592187582       -2.4831769295        0.4960453783
 H         -6.2564306447       -1.4336898392       -0.2792039371
 H         -7.3981549645        0.3161163286       -0.6509643819
 H         -7.3373955848        2.0317440332       -0.9868389956
 H         -5.2504726722        1.9784044131       -1.9562243242
 H         -5.9185478896        0.4288405447       -2.4510600912
 O         -3.2348973369        1.0018294669       -1.5445958028
 C         -1.9432565066        0.5947302426       -1.2472601589
 O         -1.0538851636        1.2981092194       -1.7630389755
 H          1.9697117875        0.3174518578       -0.7943301494
 C          1.5447885576        0.6487291681        0.1379613264
 C          0.3703071439        0.0924348972        0.6181152526
 C         -0.1559331451        0.5710515462        1.8167158834
 C          0.4666871353        1.5925171899        2.5052149670
 C          1.6348452432        2.1533887226        2.0183905687
 C          2.1705944384        1.6811901262        0.8264693041
 N          3.3456676518        2.2409646249        0.3138408329
 S          4.3978167721        1.3896702271       -0.6503477494
 O          5.6428123833        2.1220651208       -0.5442590457
 O          3.8749702863        1.2403245114       -1.9853092235
 C          4.5883010137       -0.2169725219        0.1051993801
 C          4.6684331025       -0.3219042591        1.4796538072
 C          4.8464359053       -1.5736093598        2.0466527706
 C          4.9495520226       -2.6933368557        1.2358231690
 C          4.8766091754       -2.5711107116       -0.1426664306
 C          4.6934720896       -1.3220930876       -0.7143099146
 H          4.6241117173       -1.1805369763       -1.7810748574
 H          4.9579099700       -3.4420299549       -0.7731125229
 H          5.0879130221       -3.6663627399        1.6800994217
 H          4.9038108162       -1.6712040388        3.1187967244
 H          4.5901038794        0.5619559382        2.0908991446
 H          3.8072923772        2.9191796011        0.8999020753
 H          2.1202818529        2.9585043928        2.5484354162
 H          0.0433677669        1.9562097806        3.4292995581
 H         -1.0702107287        0.1332123997        2.1934432259
 C         -0.3773940611       -1.0003398470       -0.1023168144
 H         -0.5133085829       -1.8399505821        0.5950829462
 C          0.3158896193       -1.5108663692       -1.3462727636
 C          1.4147677738       -2.5226547683       -1.2297240512
 C          0.0786619167       -2.9271577322       -1.7743171059
 H         -0.0080256103       -3.1390734909       -2.8294625653
 H         -0.5678065156       -3.5300124055       -1.1534928670
 H          2.2466960097       -2.4538939939       -1.9134205793
 H          1.6848537412       -2.8558294581       -0.2391777967
 H          0.3925164974       -0.7599830053       -2.1252720664
 O         -2.7597366381       -2.2353292909        0.8518615280
