  62
        -98.94446684
 C          1.7538295828        0.7498281495        0.0560618138
 C          2.9504567256        1.2206790938        0.6484707782
 C          4.1882227853        0.9080517941       -0.0738978813
 C          4.1300158429        0.2282012911       -1.2335608125
 C          5.3034669778       -0.1508999897       -2.0960220698
 C          6.0085094080       -1.4420116521       -1.6577782541
 C          6.8416776875       -1.3277732655       -0.3804725726
 H          7.4483205394       -2.2330039295       -0.3121061689
 H          7.5259708636       -0.4834230679       -0.4688455556
 C          6.0141232728       -1.1903589292        0.9051145706
 H          4.9843914302       -1.4988331936        0.7091908682
 H          6.4103544728       -1.8654366869        1.6670481199
 C          6.0049219995        0.2154898429        1.5056191733
 H          5.3614368472        0.2068540256        2.3890480442
 H          7.0138588948        0.4829807545        1.8271112880
 C          5.4898695745        1.3044103722        0.5553066613
 H          5.3146864421        2.2125024032        1.1372398168
 H          6.2342679990        1.5177120919       -0.2112960773
 H          5.2567147123       -2.2252009222       -1.5343787296
 H          6.6710743700       -1.7436959603       -2.4723338053
 H          4.9119757299       -0.2983565143       -3.1048854677
 H          6.0225956756        0.6683610710       -2.1184456363
 O          2.9572013422       -0.1891442331       -1.7813141913
 C          1.7444895428        0.0408211909       -1.1448252237
 O          0.7558963484       -0.4210772767       -1.7457218689
 O          2.9816079261        1.8680294558        1.7290546614
 C          0.4368295517        1.0136731482        0.7632715908
 C         -0.2323972252       -0.2910873986        1.1173922400
 C          0.4949399338       -1.2406469269        1.8319532286
 C         -0.0741730338       -2.4473585422        2.1864950728
 C         -1.3819791710       -2.7344634892        1.8354640462
 C         -2.1204494575       -1.7926518056        1.1304975251
 C         -1.5468736146       -0.5760866647        0.7831677397
 H         -2.1351811010        0.1375901936        0.2323443962
 N         -3.4631357377       -2.0371821318        0.8093314653
 S         -4.1071454682       -1.5533106662       -0.6585425215
 O         -5.3162346730       -2.3419395744       -0.7834994158
 O         -3.1593696078       -1.6741628470       -1.7398647096
 C         -4.5674780503        0.1481835761       -0.4110002655
 C         -5.2994658286        0.4787112496        0.7124907670
 C         -5.6970510534        1.7942843423        0.8883210991
 C         -5.3657243324        2.7499552105       -0.0604134777
 C         -4.6329904835        2.4009616406       -1.1848623557
 C         -4.2281425231        1.0871050448       -1.3645067165
 H         -3.6451939873        0.7731570790       -2.2165368626
 H         -4.3739943976        3.1447555240       -1.9220002322
 H         -5.6768180595        3.7735800108        0.0769563428
 H         -6.2646678404        2.0709583493        1.7619969988
 H         -5.5430660464       -0.2927413765        1.4233878327
 H         -3.8007740801       -2.9516773898        1.0728891866
 H         -1.8275163912       -3.6798886908        2.1057414434
 H          0.5040317379       -3.1745519438        2.7367169231
 H          1.5180795940       -1.0172690124        2.1026505574
 H          0.7126454591        1.5179146824        1.7018891656
 C         -0.4369223481        1.9469390529       -0.0466261180
 C         -1.4287513227        2.8291063085        0.6495715421
 C         -0.1946700757        3.4229264896        0.0417031232
 H         -0.2925088485        4.0146459129       -0.8559123569
 H          0.5938970145        3.7564589214        0.7003299605
 H         -2.3789963173        3.0143424025        0.1725460423
 H         -1.4808147094        2.7632561332        1.7256607975
 H         -0.6994682696        1.5387046043       -1.0167531904
