  62
        -98.94687411
 C         -1.1511977318       -1.1495259534       -0.1735274920
 C         -2.0093426421       -0.8249752700        0.9112079658
 C         -2.8372137186        0.3764723764        0.7557173950
 C         -2.7263183563        1.1056612843       -0.3691800934
 C         -3.5581107209        2.3114577758       -0.6959631510
 C         -4.8251293637        1.9155498645       -1.4673544005
 C         -5.6065386892        0.7691076304       -0.8253070416
 H         -6.4952078974        0.5986930718       -1.4369161852
 H         -5.0060901784       -0.1422826124       -0.8717068350
 C         -6.0282828748        1.0235121683        0.6287334698
 H         -5.9762834539        2.0904265042        0.8488747738
 H         -7.0702089848        0.7193185888        0.7492598882
 C         -5.2158128682        0.2502281797        1.6692479579
 H         -5.1923106594       -0.8092070907        1.4017183298
 H         -5.7294209104        0.3327078893        2.6308140683
 C         -3.7727588443        0.7267972872        1.8782154782
 H         -3.7663061304        1.8023131329        2.0663007621
 H         -3.3816380672        0.2195424010        2.7647717333
 H         -5.4677508093        2.7939364199       -1.5503957687
 H         -4.5360520875        1.6098439137       -2.4755385693
 H         -3.8306265307        2.8228882690        0.2253191340
 H         -2.9646296829        2.9849940444       -1.3159603258
 O         -1.8660492147        0.7909861603       -1.3667281759
 C         -1.0614716393       -0.3354223556       -1.3028099755
 O         -0.3340221144       -0.4750637341       -2.3075142016
 H          1.5489411813       -1.0452393303       -1.3959882480
 C          1.9160911430       -1.3795253266       -0.4371903525
 C          1.0802776228       -2.1108970642        0.3947728641
 C          1.5645716698       -2.5102333045        1.6347343672
 C          2.8517021559       -2.1860455856        2.0294206043
 C          3.6777674028       -1.4463218719        1.2013875509
 C          3.1970645513       -1.0369753963       -0.0348973256
 N          4.0068843623       -0.2200773501       -0.8622735006
 S          4.1801842853        1.3415461681       -0.2767698149
 O          4.7086657807        2.1225306457       -1.3715612159
 O          4.9836351604        1.2939926115        0.9182371894
 C          2.5271389301        1.8806032425        0.1281139981
 C          1.7933428560        2.5560795223       -0.8255481443
 C          0.4974785239        2.9425293119       -0.5252528632
 C         -0.0453164376        2.6318482708        0.7115055537
 C          0.6974584830        1.9353905638        1.6517755996
 C          1.9986246667        1.5586898447        1.3624906086
 H          2.6100066666        1.0293197201        2.0748397412
 H          0.2638551689        1.6806681733        2.6057287734
 H         -1.0555864801        2.9292227771        0.9444845767
 H         -0.0865030530        3.4755488907       -1.2583827541
 H          2.2507946646        2.7788443165       -1.7764062235
 H          3.6519122850       -0.1675398142       -1.8081670738
 H          4.6714407009       -1.1563003994        1.5020164007
 H          3.2131751864       -2.5054580105        2.9950206883
 H          0.9178229849       -3.0641898650        2.2992767810
 C         -0.3335452527       -2.4238172716       -0.0295853419
 H         -0.8118852117       -2.9792227073        0.7881123825
 C         -0.3523485524       -3.2915154319       -1.2729137181
 C         -0.0432575389       -4.7518403628       -1.1446226768
 C         -1.4422793765       -4.3048813690       -1.4434704059
 H         -1.8397642531       -4.4719274052       -2.4333548317
 H         -2.1808090924       -4.3824091227       -0.6587829236
 H          0.5233757449       -5.2289653017       -1.9293669576
 H          0.1659970715       -5.1341197969       -0.1570524743
 H         -0.0083685119       -2.7803744543       -2.1625404393
 O         -2.0856240892       -1.5199260672        1.9586660064
