  62
        -98.93864310
 C         -1.6768709363       -1.1465290928       -0.2540433111
 C         -3.0159411826       -1.3515355653        0.1552680399
 C         -3.9781455201       -0.3175166702       -0.2481083175
 C         -3.5594701127        0.7316243408       -0.9787372435
 C         -4.4126523365        1.8468586123       -1.5228870799
 C         -5.0680373714        2.7743771195       -0.4813020165
 C         -6.4957599150        2.3748690094       -0.0888452966
 H         -7.0991090807        3.2797263912        0.0086304925
 H         -6.9335644450        1.7933763077       -0.9011518555
 C         -6.6354515673        1.6019857942        1.2262047424
 H         -6.5539572080        2.3016113885        2.0612305753
 H         -7.6386135896        1.1712417192        1.2558151080
 C         -5.6123027958        0.4902949482        1.4599084083
 H         -4.6504780047        0.9292058097        1.7358166663
 H         -5.9397454748       -0.0991346673        2.3186806725
 C         -5.3872908713       -0.4425995465        0.2538280391
 H         -6.0992512246       -0.2239563759       -0.5406110655
 H         -5.5193272729       -1.4829398502        0.5578055816
 H         -4.4327353627        2.8362831189        0.4017987993
 H         -5.1038887164        3.7708576175       -0.9243850137
 H         -5.1868565456        1.4154201395       -2.1614324431
 H         -3.7483233802        2.4369197619       -2.1574592974
 O         -2.2615544895        0.8863667823       -1.3586543492
 C         -1.2887818663       -0.0329354773       -0.9970916476
 O         -0.1437442627        0.2516961868       -1.3950425495
 O         -3.3896343868       -2.3518296186        0.8244660112
 C         -0.6243875933       -2.1696298579        0.1341638678
 C          0.4390208886       -1.5122508958        0.9780734533
 C          0.0536136140       -0.8818171831        2.1598677157
 C          0.9849030279       -0.2618915652        2.9689081041
 C          2.3226058774       -0.2484829157        2.6116084246
 C          2.7183421322       -0.8753790636        1.4375061426
 C          1.7808824579       -1.5113451882        0.6328699972
 H          2.1200751221       -1.9823419470       -0.2738933152
 N          4.0746490885       -0.8991721893        1.0577309965
 S          4.5224827048       -0.2507033995       -0.4211066520
 O          3.8766642717       -0.9669987531       -1.4886540069
 O          5.9693612014       -0.2869714216       -0.4107550934
 C          3.9740923956        1.4450618186       -0.3437981264
 C          4.8858376739        2.4099681326        0.0412631815
 C          4.4613289558        3.7212569863        0.1762896298
 C          3.1337246180        4.0428806982       -0.0643184031
 C          2.2322238683        3.0615724836       -0.4452473990
 C          2.6494453803        1.7464265915       -0.5877390846
 H          1.9576756984        0.9748449971       -0.8879973904
 H          1.1976365874        3.3006271019       -0.6352938026
 H          2.7991248056        5.0627111318        0.0437693934
 H          5.1624208816        4.4858651450        0.4699622924
 H          5.9081168072        2.1138555769        0.2135721922
 H          4.6983902685       -0.5462907037        1.7707845286
 H          3.0537613832        0.2387711731        3.2388914966
 H          0.6692448094        0.2195708687        3.8820596287
 H         -0.9927771218       -0.8883480376        2.4336897614
 H         -1.1511866725       -2.9050097148        0.7602739697
 C         -0.0842855354       -2.8760145958       -1.0905348618
 C          0.4946572569       -4.2523965029       -0.9646612320
 C         -0.8293069557       -4.0546591741       -1.6381919620
 H         -0.8879139495       -4.1750381789       -2.7095983048
 H         -1.7218063057       -4.3645110431       -1.1142048469
 H          1.3496985712       -4.5072431991       -1.5727114620
 H          0.5023437365       -4.7028082465        0.0164442167
 H          0.3693971363       -2.1979417263       -1.8053956263
