  62
        -98.94569611
 C         -0.7079618379       -1.7951205907        0.0750598691
 C         -1.9264475681       -1.6928154722        0.7912000489
 C         -2.9334674788       -0.7866768528        0.2296307292
 C         -2.6493970893       -0.0825777320       -0.8809547104
 C         -3.5940602299        0.8349974976       -1.6110071401
 C         -3.6884995214        2.2541515972       -1.0350540793
 C         -4.4157114317        2.3704386158        0.3045704206
 H         -4.5927521227        3.4331836255        0.4822291812
 H         -5.3900099113        1.8855739549        0.2341982302
 C         -3.6397220614        1.7952541858        1.4981429805
 H         -3.6734411122        2.5013501553        2.3315024108
 H         -2.5848394413        1.6752958969        1.2359233106
 C         -4.1762484303        0.4599838950        2.0142998196
 H         -5.1779744405        0.6026260639        2.4265966895
 H         -3.5240774402        0.1201284652        2.8232774296
 C         -4.2375446391       -0.6475207444        0.9549765890
 H         -4.4379013683       -1.5945883449        1.4625468284
 H         -5.0462068991       -0.4496012048        0.2511615790
 H         -4.2215280018        2.8666994171       -1.7661991291
 H         -2.6812149317        2.6613788780       -0.9299966489
 H         -4.5884967195        0.3869463667       -1.6294344205
 H         -3.2263965198        0.9030119485       -2.6370920600
 O         -1.4472379391       -0.1643003505       -1.5075482302
 C         -0.4410067984       -1.0032944699       -1.0428928305
 O          0.6082428217       -0.9476559085       -1.7089874602
 O         -2.1663856277       -2.3420051830        1.8453338885
 C          0.3464745729       -2.7437351501        0.6126031687
 C          1.7010174723       -2.0803748888        0.6457060694
 C          2.8709252029       -2.6946245975        0.2171276393
 C          4.0833060823       -2.0319322965        0.3009266199
 C          4.1540125610       -0.7414560767        0.7902995206
 C          2.9870812204       -0.1144338880        1.2131888407
 C          1.7814314410       -0.7916019190        1.1592641901
 H          0.8857268405       -0.2942331800        1.5026426002
 N          3.0107470391        1.2047073318        1.7001770414
 S          1.8118563582        2.2702021709        1.2465166318
 O          2.3685575569        3.5754675913        1.5440256926
 O          0.5758558683        1.9594939694        1.9228704314
 C          1.5894075287        2.1330624417       -0.5181040683
 C          0.3372981785        2.4199932008       -1.0187821484
 C          0.1320012788        2.3913854314       -2.3873932385
 C          1.1822205492        2.0700081128       -3.2309421685
 C          2.4357608194        1.7867059237       -2.7148718984
 C          2.6483615991        1.8253783331       -1.3467363283
 H          3.6176589092        1.6045893738       -0.9311154282
 H          3.2487236698        1.5269750848       -3.3736291084
 H          1.0190035395        2.0316903133       -4.2964843685
 H         -0.8463436913        2.6045266407       -2.7881933986
 H         -0.4531961819        2.6440778297       -0.3184141485
 H          3.9170363787        1.6497991926        1.6808315418
 H          5.0980612305       -0.2204269458        0.8443270410
 H          4.9841327628       -2.5237257355       -0.0330041202
 H          2.8365052539       -3.6886980773       -0.1964063613
 H          0.0409339129       -2.9242727609        1.6580896886
 C          0.3591773643       -4.1030463797       -0.0748883420
 C         -0.8162088551       -4.5893878103       -0.8675600725
 C          0.4596088047       -4.2300049988       -1.5647070221
 H          1.0609704655       -5.0283287380       -1.9741916624
 H          0.4926662039       -3.3158330184       -2.1362165715
 H         -1.0873272242       -5.6317383706       -0.7892054331
 H         -1.6625260157       -3.9260470010       -0.9730076423
 H          0.8739820548       -4.8548729795        0.5152056877
