  62
        -98.94473870
 C          1.9183763595        0.3510242496       -0.7065466696
 C          2.9433557395        1.2470812096       -0.3195373598
 C          4.3075399495        0.7036921496       -0.3248283599
 C          4.5048296195       -0.5723812204       -0.7038475599
 C          5.8336471295       -1.2699547004       -0.7012027600
 C          6.0847168896       -1.9794772804        0.6368837400
 C          5.8343339297       -1.0977002903        1.8603171100
 H          4.7703790397       -0.8555527304        1.9123351501
 H          6.0712949898       -1.6936865303        2.7443171400
 C          6.6520703997        0.2012686497        1.8850519099
 H          7.0646223798        0.3360783897        2.8871483199
 H          7.4940332097        0.1218917997        1.1964898598
 C          5.8497772497        1.4626795897        1.5604488900
 H          6.4629768297        2.3307482997        1.8165063499
 H          4.9547618897        1.4987105297        2.1865868800
 C          5.4203507595        1.6218957596        0.0964639400
 H          5.0335264595        2.6375997496       -0.0274893700
 H          6.2871267195        1.5025791996       -0.5565418801
 H          7.1155199296       -2.3382622604        0.6492318099
 H          5.4221945397       -2.8460373304        0.6983048701
 H          6.6206789995       -0.5431250604       -0.8926264001
 H          5.8340773594       -2.0119160804       -1.5014500400
 O          3.4974215195       -1.3965332804       -1.0901024598
 C          2.1787366395       -0.9640758204       -1.0911034196
 O          1.3557023294       -1.8273821805       -1.4494896896
 O          2.7257298395        2.4412840096        0.0197368102
 C          0.4816487495        0.8424095195       -0.7098290495
 C         -0.3564051504       -0.0164926804        0.2035306106
 C          0.0691256397       -0.2032746504        1.5173616005
 C         -0.6452185102       -1.0029216204        2.3865092506
 C         -1.8111398202       -1.6225324304        1.9699765407
 C         -2.2510976804       -1.4354389305        0.6663674008
 C         -1.5277065405       -0.6320121105       -0.2067069593
 H         -1.8870335106       -0.5214681205       -1.2155371793
 N         -3.4284040004       -2.0554015205        0.2150714709
 S         -4.5626264405       -1.1613266005       -0.6278110690
 O         -5.7759329005       -1.9443512005       -0.5471608889
 O         -4.0855488106       -0.8613365305       -1.9528099690
 C         -4.7327610604        0.3326384995        0.3306403210
 C         -5.4976850103        0.2868544795        1.4800357011
 C         -5.5763145102        1.4157453595        2.2786698711
 C         -4.8836949803        2.5628328095        1.9212940610
 C         -4.1220730204        2.5929137595        0.7636653409
 C         -4.0430958505        1.4679574095       -0.0422355191
 H         -3.4647213706        1.4537393095       -0.9509600492
 H         -3.5857616104        3.4864218295        0.4861897708
 H         -4.9391756002        3.4398603595        2.5466661610
 H         -6.1722922702        1.3977713795        3.1767983611
 H         -6.0275346503       -0.6214394405        1.7172941611
 H         -3.8778080803       -2.6409709705        0.9039904410
 H         -2.3684312602       -2.2545198804        2.6446328608
 H         -0.2958933301       -1.1446137004        3.3981141706
 H          0.9797906397        0.2812751496        1.8423980904
 H          0.5224659695        1.8578521396       -0.2881159395
 C         -0.0444626207        0.9268955895       -2.1264176095
 C         -1.0751379507        1.9525019695       -2.4883207794
 C          0.3345541892        2.1027213495       -2.9742196895
 H          0.5439494291        1.9372897095       -4.0203950095
 H          0.9533779693        2.8624404895       -2.5193912996
 H         -1.8429554308        1.6836099295       -3.1990055693
 H         -1.4051584706        2.6217850095       -1.7079544194
 H         -0.0918177507       -0.0401244305       -2.6153482394
