  62
        -98.94108068
 C          2.2962614169        0.7195617751       -0.2371961196
 C          3.4877177037        0.8929598232        0.5114900409
 C          4.2962880932       -0.3126051443        0.7308479928
 C          3.8535849954       -1.4936636032        0.2622991576
 C          4.5929547668       -2.7943253895        0.3801033058
 C          5.4979228530       -3.0325340161       -0.8369024413
 C          6.3824934212       -1.8373796492       -1.1919395712
 H          6.9981819003       -2.1309871184       -2.0448162894
 H          5.7487048163       -1.0111815192       -1.5220493177
 C          7.2875051272       -1.3558402263       -0.0493939859
 H          7.3751619021       -2.1358360465        0.7077108974
 H          8.2883301458       -1.1764305765       -0.4476032089
 C          6.8327108416       -0.0547742537        0.6143955730
 H          7.6472486006        0.3064648786        1.2476964634
 H          6.6526394145        0.7036563334       -0.1515385924
 C          5.5810285189       -0.1569655422        1.4952366906
 H          5.7019952778       -0.9696209631        2.2144524352
 H          5.4868745040        0.7811672666        2.0499152956
 H          4.8655859997       -3.2589599909       -1.6985053808
 H          6.1233028786       -3.9042901657       -0.6359950111
 H          5.1867717425       -2.7865390774        1.2921204052
 H          3.8601234915       -3.6007944733        0.4416002348
 O          2.6889114563       -1.6285327553       -0.4208555328
 C          1.8844913745       -0.5316861618       -0.6963676227
 O          0.8598566554       -0.8088098183       -1.3495863573
 H         -1.0482041631        0.9803602370       -1.1926803008
 C         -0.9993923185        1.2719906021       -0.1552185796
 C          0.1770697349        1.7966961098        0.3558174250
 C          0.2253083721        2.1324738098        1.7060596155
 C         -0.8789359492        1.9519540297        2.5169156609
 C         -2.0536329762        1.4294987257        2.0029749311
 C         -2.1060322192        1.0744453520        0.6620481440
 N         -3.2976027920        0.5504092509        0.1126357582
 S         -3.9856070424       -0.8305614222        0.7997651145
 O         -4.2071685011       -0.5987580255        2.2042257020
 O         -3.2129239602       -2.0079115739        0.4624104458
 C         -5.5448468800       -0.8542041307       -0.0624400326
 C         -6.5624570385       -0.0382725443        0.3929882345
 C         -7.7671071249       -0.0244412858       -0.2914676945
 C         -7.9324256343       -0.8207675524       -1.4150235203
 C         -6.9020087775       -1.6351863715       -1.8596268646
 C         -5.6942698903       -1.6529448503       -1.1794470172
 H         -4.8688727976       -2.2766419714       -1.4843900433
 H         -7.0335306575       -2.2550804442       -2.7319624887
 H         -8.8707763017       -0.8087490989       -1.9467035215
 H         -8.5714994939        0.6056947470        0.0522283134
 H         -6.3906606636        0.5574780776        1.2739305722
 H         -3.1812141583        0.3671297980       -0.8765496883
 H         -2.9135378562        1.2689365336        2.6313086472
 H         -0.8281939153        2.2203955584        3.5615520396
 H          1.1471221312        2.5244214885        2.1131997044
 C          1.4244978590        1.9412363210       -0.4806176541
 H          1.9998655340        2.7897048619       -0.0863799917
 C          1.1564016574        2.1768480577       -1.9518211416
 C          0.6126506251        3.5021527024       -2.3922999704
 C          2.0285343417        3.1296589866       -2.7109158692
 H          2.2829246948        2.8910015808       -3.7327833668
 H          2.8217792142        3.6219752519       -2.1677160851
 H         -0.1069237754        3.5236965115       -3.1962746158
 H          0.4435679489        4.2469694984       -1.6295056366
 H          0.8225763016        1.2900829823       -2.4765036113
 O          3.8573180189        2.0057352605        0.9724541839
