  62
        -98.94796918
 C         -1.2512011272       -0.7796764579        0.4014793375
 C         -2.0871330730       -0.5908122885       -0.7248421573
 C         -3.0410771080        0.5211027672       -0.6281483136
 C         -3.0292408036        1.3230778802        0.4518595144
 C         -3.9189413669        2.5151737290        0.6794508295
 C         -5.2979750290        2.1661346645        1.2562598977
 C         -6.2616408499        1.4942047371        0.2772445232
 H         -7.2494462276        1.5058945913        0.7421195858
 H         -6.3235817191        2.0893671088       -0.6343306148
 C         -5.8985233395        0.0449354052       -0.0750455572
 H         -5.1910579448       -0.3423681614        0.6616350622
 H         -6.7936680181       -0.5783952367       -0.0189182994
 C         -5.3057993127       -0.1381360687       -1.4722210176
 H         -6.0527183752        0.1237437251       -2.2248346535
 H         -5.0521392052       -1.1932503494       -1.6014873783
 C         -4.0393211318        0.6878165720       -1.7337839411
 H         -3.5752852947        0.3257360879       -2.6546860030
 H         -4.2942375827        1.7397945075       -1.8622155855
 H         -5.7523686153        3.0989355469        1.5981509216
 H         -5.1586380700        1.5247346930        2.1295446105
 H         -4.0407198804        3.0638845124       -0.2551320288
 H         -3.3978583460        3.1589234040        1.3918028858
 O         -2.1625310788        1.1480521828        1.4850158640
 C         -1.2604640233        0.0968300068        1.4859461101
 O         -0.5244663566        0.0514110442        2.4941032430
 O         -2.0411204445       -1.3081378944       -1.7580980735
 C         -0.2383194432       -1.9090287147        0.4146182383
 C          0.7888663182       -1.7037827279       -0.6736116866
 C          1.3196139586       -2.7379440471       -1.4343887240
 C          2.2853665940       -2.4758074921       -2.3911097729
 C          2.7627406120       -1.1928687408       -2.5903782227
 C          2.2417638623       -0.1526775438       -1.8294202341
 C          1.2582378534       -0.4159330816       -0.8905841646
 H          0.8400888225        0.4050591968       -0.3288387355
 N          2.6970957954        1.1663013006       -1.9810869451
 S          2.8385462226        2.1341398310       -0.6227551427
 O          1.5422092875        2.6001057620       -0.1971206016
 O          3.7768428620        3.1635784655       -1.0185212280
 C          3.5890822220        1.0799201393        0.6059902080
 C          4.9100439109        0.7260409860        0.4035194446
 C          5.5234280243       -0.1317797764        1.3005102246
 C          4.8064567965       -0.6262045298        2.3800045711
 C          3.4848709963       -0.2573723138        2.5725801955
 C          2.8652786209        0.6042669127        1.6797541538
 H          1.8350555353        0.8966461117        1.8139351794
 H          2.9186897207       -0.6352346845        3.4092272270
 H          5.2795296252       -1.2997393876        3.0770330263
 H          6.5534478173       -0.4146149513        1.1552972240
 H          5.4358188569        1.1411748843       -0.4409682499
 H          3.4812906755        1.2781667829       -2.6067286284
 H          3.5219127001       -0.9938310589       -3.3308664782
 H          2.6811249181       -3.2860553069       -2.9841966432
 H          0.9719898622       -3.7467680036       -1.2840682435
 H          0.2867827554       -1.8325849559        1.3791159606
 C         -0.9343927477       -3.2523787957        0.3440594886
 C         -0.3359029746       -4.4502326270        1.0165158877
 C         -1.5621422633       -3.8055330885        1.5871276247
 H         -2.5069473511       -4.3211467749        1.5026637829
 H         -1.4627018109       -3.2244255245        2.4928396798
 H         -0.4411841565       -5.4141724202        0.5419516225
 H          0.5966705461       -4.3149293336        1.5431096580
 H         -1.4634655352       -3.3972418210       -0.5904865535
