  62
        -98.93971920
 C         -2.4771729499       -1.0224823557       -0.0984486530
 C         -3.7085134115       -1.0868493489        0.5968143744
 C         -4.8608825452       -0.4754162734       -0.0776725949
 C         -4.6902145051        0.0913307769       -1.2862572878
 C         -5.7636424063        0.8001795066       -2.0593314654
 C         -5.7850947468        2.2997369648       -1.7316214435
 C         -5.7840972021        2.6050674142       -0.2337023187
 H         -4.8329233274        2.2811751688        0.1954422703
 H         -5.8316076241        3.6906367885       -0.1231439068
 C         -6.9384227630        1.9605968880        0.5465789171
 H         -7.3609762515        2.7051199131        1.2245981668
 H         -7.7302663331        1.6630364215       -0.1417468646
 C         -6.5332341262        0.7589594407        1.4022931232
 H         -5.6782576230        1.0270907412        2.0283040166
 H         -7.3652644775        0.5213436175        2.0705486589
 C         -6.1844688437       -0.5214249812        0.6328505501
 H         -6.9888514249       -0.7617107125       -0.0651727386
 H         -6.1058185845       -1.3345122209        1.3604664429
 H         -4.9010796446        2.7636985951       -2.1751878594
 H         -6.6695008602        2.7416863063       -2.1940916362
 H         -5.5609993458        0.6733190908       -3.1240770657
 H         -6.7279576693        0.3526909736       -1.8267498002
 O         -3.4946139964        0.1243707238       -1.9275824091
 C         -2.3558971878       -0.4180965231       -1.3497298980
 O         -1.3272948955       -0.3061926383       -2.0425580233
 O         -3.8366788916       -1.6278819532        1.7283616481
 C         -1.2388659169       -1.6134814521        0.5526374101
 C         -0.2321510810       -0.5150173254        0.7908662705
 C         -0.5972257303        0.5513160461        1.6095238867
 C          0.2783473379        1.5922285476        1.8484135020
 C          1.5371331105        1.5973858370        1.2725317249
 C          1.9132110083        0.5384348238        0.4587074448
 C          1.0349375630       -0.5159125465        0.2321211438
 H          1.3416457996       -1.3308309520       -0.4045935497
 N          3.1802113047        0.5445468005       -0.1506814388
 S          4.5006631781        1.0308578002        0.7816748629
 O          4.4666556139        0.3753029150        2.0703326081
 O          4.5378810433        2.4715963795        0.8116394513
 C          5.8526292549        0.4107212348       -0.1990767062
 C          6.4051932494       -0.8178343853        0.1096710168
 C          7.4393051298       -1.3035083239       -0.6750759577
 C          7.8981901004       -0.5581048425       -1.7507243820
 C          7.3329242833        0.6731128653       -2.0482506605
 C          6.2993463867        1.1651799701       -1.2672614922
 H          5.8354933876        2.1193758685       -1.4552072166
 H          7.6941453079        1.2503696391       -2.8840210395
 H          8.7035247582       -0.9379961325       -2.3593853563
 H          7.8827241229       -2.2589067253       -0.4449508561
 H          6.0232454918       -1.3587159947        0.9607156378
 H          3.3723793488       -0.3188249376       -0.6398129785
 H          2.2308231654        2.4038122917        1.4480561446
 H         -0.0193424111        2.4107532115        2.4870172565
 H         -1.5825769399        0.5511467071        2.0561097415
 H         -1.5743960242       -1.9840059809        1.5322312727
 C         -0.7081998734       -2.7799195271       -0.2524696137
 C          0.1561646655       -3.8114387056        0.4076445301
 C         -1.2492897654       -4.1511990768        0.0143323504
 H         -1.4055650230       -4.8150546672       -0.8226161788
 H         -1.9909756936       -4.2497010701        0.7933626334
 H          0.9649149058       -4.2476349407       -0.1590096521
 H          0.3727854016       -3.6820803616        1.4573606294
 H         -0.4999757733       -2.5182752274       -1.2837000043
