  62
        -98.94296974
 C         -1.7528924927       -1.3597761252        0.0307835513
 C         -2.2939961252       -0.4761812064        0.9952508102
 C         -3.2550128075        0.5148590148        0.4941193126
 C         -3.5746854660        0.5176493959       -0.8129946886
 C         -4.4779390238        1.5203423809       -1.4698207000
 C         -3.6788570882        2.7213861957       -1.9963962647
 C         -2.7068122596        3.3145622502       -0.9758602624
 H         -1.9287354890        2.5793725740       -0.7558977218
 H         -2.2165519519        4.1671011150       -1.4513796485
 C         -3.3610914627        3.7663255952        0.3375225080
 H         -2.9661479076        4.7486159510        0.6050674928
 H         -4.4365046692        3.8779359391        0.1950027283
 C         -3.1007816241        2.8398524502        1.5267150191
 H         -3.4205252685        3.3558557839        2.4356513333
 H         -2.0279629545        2.6508158345        1.6163319113
 C         -3.8247692211        1.4881409985        1.4873674742
 H         -3.7056855272        1.0190100706        2.4682569650
 H         -4.8900704236        1.6450752089        1.3079739290
 H         -3.1046767995        2.3995553325       -2.8687210436
 H         -4.3827615746        3.4903674035       -2.3195661354
 H         -4.9814826071        1.0352340907       -2.3076193789
 H         -5.2257421975        1.8541802710       -0.7531887259
 O         -3.0589165980       -0.3670601276       -1.7048647740
 C         -2.1247274682       -1.3181639674       -1.3133128487
 O         -1.7116396807       -2.0419592980       -2.2383741561
 H          0.2655519215       -0.0987019578       -0.6025043343
 C          0.9709611167       -0.9177027117       -0.6734507164
 C          0.6158771792       -2.1676916718       -0.1853033911
 C          1.5492447813       -3.1948866514       -0.2780185138
 C          2.7903437800       -2.9755176417       -0.8498402764
 C          3.1290350049       -1.7324581019       -1.3535506423
 C          2.2042167750       -0.7014359429       -1.2700320675
 N          2.5404367857        0.5737187631       -1.7818491914
 S          3.7020937703        1.4096765349       -0.9093076948
 O          3.6862538286        2.7594874213       -1.4242462735
 O          4.9512407690        0.6999189123       -1.0024211738
 C          3.0956902019        1.3771635862        0.7666090720
 C          2.2382714482        2.3769948323        1.1806357465
 C          1.6897813350        2.3063222271        2.4507948548
 C          1.9964713787        1.2347500264        3.2753371142
 C          2.8567457940        0.2373413997        2.8430191162
 C          3.4123580695        0.3043879103        1.5753434568
 H          4.0855136530       -0.4502456199        1.2025812670
 H          3.0904054168       -0.5956225092        3.4862451187
 H          1.5576148014        1.1754464186        4.2587669879
 H          1.0197118402        3.0798864811        2.7909935159
 H          2.0266972128        3.1935297527        0.5082496921
 H          1.7344816171        1.1703235700       -1.9058830506
 H          4.0916316187       -1.5400486577       -1.7985392183
 H          3.5015125294       -3.7850163168       -0.9104878269
 H          1.3003194247       -4.1729153077        0.1006045815
 C         -0.7242418171       -2.3762687264        0.4801423061
 H         -0.5935318453       -2.1960205587        1.5585710472
 C         -1.2501013353       -3.7865542006        0.2872082622
 C         -0.9645826161       -4.8572255258        1.2965234256
 C         -2.3418849999       -4.2780059080        1.1888061559
 H         -3.1296281063       -4.8818745184        0.7641066857
 H         -2.6774235093       -3.6088999357        1.9679024926
 H         -0.8061229685       -5.8659886033        0.9457678071
 H         -0.3758227590       -4.5902222731        2.1611792493
 H         -1.3027396832       -4.0689842870       -0.7581921178
 O         -1.9792601542       -0.5090368449        2.2150027411
