  62
        -98.94758853
 C         -2.5263711556       -0.2942546522        0.0176937290
 C         -2.2222846556       -1.3090031768       -0.9195758514
 C         -1.5765458394       -2.5126404481       -0.3820070632
 C         -1.3332436218       -2.5928276575        0.9388533562
 C         -0.6802078123       -3.7599537896        1.6216595832
 C          0.8374100447       -3.5750069830        1.7439585658
 C          1.5279258276       -3.1913893315        0.4349741588
 H          1.2338820399       -2.1753669450        0.1607479446
 H          2.6023463833       -3.1623359277        0.6337226402
 C          1.2531855416       -4.1365478910       -0.7424316565
 H          2.1934401795       -4.3155844652       -1.2679425394
 H          0.8967106356       -5.0991817271       -0.3727564901
 C          0.2665043841       -3.5871611875       -1.7750100227
 H          0.3512961440       -4.1901896036       -2.6834064511
 H          0.5486547627       -2.5618848658       -2.0316828320
 C         -1.2099883489       -3.5956915176       -1.3568147706
 H         -1.8121378962       -3.4080522692       -2.2508570561
 H         -1.4764914290       -4.5791396545       -0.9628887087
 H          1.0318415879       -2.7805784495        2.4682942790
 H          1.2660352989       -4.5038617595        2.1263561474
 H         -1.1055654617       -3.8474737191        2.6233342580
 H         -0.9019881728       -4.6673317865        1.0625850590
 O         -1.6529925009       -1.6041983806        1.8123776996
 C         -2.2064181140       -0.4130963217        1.3702536707
 O         -2.3893359246        0.4326781442        2.2676128468
 H         -0.5086531164        0.8591493777       -1.0028363001
 C         -0.7535527801        1.8172147959       -0.5676751925
 C         -2.0737345246        2.1067250365       -0.2491826538
 C         -2.3663857038        3.3556040225        0.2824176570
 C         -1.3511634404        4.2671202620        0.5209879836
 C         -0.0308711938        3.9483605078        0.2609209893
 C          0.2684990450        2.7070370852       -0.2892638313
 N          1.5921404220        2.3203427275       -0.5718548535
 S          1.9584854090        0.6926560899       -0.2707715654
 O          1.6307517162       -0.0761510645       -1.4454861152
 O          1.3570453101        0.2725741111        0.9736255799
 C          3.7312958922        0.7819476546       -0.1000461508
 C          4.5114067692        0.7927250777       -1.2408048060
 C          5.8872638334        0.8956292657       -1.1100358600
 C          6.4567526580        0.9855185685        0.1515525424
 C          5.6611745399        0.9706361813        1.2873737438
 C          4.2842503471        0.8698257557        1.1634086494
 H          3.6250207645        0.8451214523        2.0165866737
 H          6.1061301713        1.0366948565        2.2671048953
 H          7.5277696491        1.0646471207        0.2506699276
 H          6.5090233302        0.9042553262       -1.9905893534
 H          4.0230376402        0.7100622291       -2.1977299461
 H          2.2755029171        2.9357760152       -0.1509595608
 H          0.7606410068        4.6482076693        0.4822291718
 H         -1.5907016920        5.2327423602        0.9400768515
 H         -3.3853266034        3.6096283483        0.5250491719
 C         -3.0970735423        1.0215653612       -0.4836716729
 H         -3.2204757587        0.8918793933       -1.5698511662
 C         -4.4474995442        1.3131274643        0.1332883285
 C         -5.4554937602        2.1346290687       -0.6122410252
 C         -5.6654463717        0.6604966412       -0.4464104063
 H         -6.4365224353        0.3192178594        0.2276400327
 H         -5.5225038245        0.0215600278       -1.3057326277
 H         -6.0880776813        2.8066414211       -0.0522880581
 H         -5.1780893501        2.4987151463       -1.5899148270
 H         -4.3976001706        1.4125074074        1.2115820689
 O         -2.4867766634       -1.2133388499       -2.1505016598
