  62
        -98.93429421
 C         -1.8396705769       -1.0029792858       -0.2343473696
 C         -3.1762854174       -1.4464839698       -0.0841987051
 C         -4.1135054049       -0.5193413387        0.5739733982
 C         -3.6504988424        0.6550154343        1.0352366867
 C         -4.4374979732        1.7629449189        1.6785689954
 C         -4.8811775754        2.7939643865        0.6266662104
 C         -6.2084813646        2.4811384166       -0.0631119844
 H         -7.0250077473        2.6261820403        0.6473603581
 H         -6.3383503391        3.2120746463       -0.8645764325
 C         -6.3226473002        1.0751101848       -0.6580067862
 H         -7.1116094004        1.0937863538       -1.4124310059
 H         -5.3939986558        0.8152030358       -1.1695670894
 C         -6.6612183629        0.0022416560        0.3877618061
 H         -6.9735434272        0.4903128731        1.3108597243
 H         -7.5168553978       -0.5820034824        0.0426579329
 C         -5.5351473778       -0.9980346094        0.6879144510
 H         -5.6011837113       -1.8402399954       -0.0083099391
 H         -5.6844448626       -1.4126056562        1.6907723911
 H         -4.9733944138        3.7691284274        1.1090915690
 H         -4.0878458342        2.8730808778       -0.1210781110
 H         -5.2882381674        1.3665010660        2.2247542247
 H         -3.7641612096        2.2534290696        2.3846906998
 O         -2.3452194188        1.0197133668        0.9216812567
 C         -1.4064573537        0.2143596517        0.2928009222
 O         -0.2597024600        0.6939018209        0.2822290363
 O         -3.5736314901       -2.5729198011       -0.4875222894
 C         -0.8599236538       -1.9335671016       -0.9267059364
 C          0.4159944313       -2.0279051473       -0.1287557423
 C          0.3463532984       -2.5041722964        1.1781940739
 C          1.4786294345       -2.5828726479        1.9648680780
 C          2.7114141220       -2.2020078900        1.4632566495
 C          2.7931510435       -1.7251290540        0.1622440915
 C          1.6508813392       -1.6457445540       -0.6275842530
 H          1.7302690882       -1.2543157540       -1.6297919174
 N          4.0459799445       -1.3598931526       -0.3676841291
 S          4.9975412524       -0.1907650993        0.3536375780
 O          6.2596553540       -0.2376688383       -0.3497741021
 O          5.0516038089       -0.4296251370        1.7734213853
 C          4.2093133099        1.3777440466        0.0236561317
 C          4.9102659549        2.3438633752       -0.6722797746
 C          4.2984111227        3.5583316919       -0.9362927037
 C          2.9970909255        3.7821116474       -0.5116961647
 C          2.3057145371        2.8001602393        0.1803812185
 C          2.9156093135        1.5868262983        0.4572644949
 H          2.3787108567        0.8138671603        0.9831880340
 H          1.2852409750        2.9474045765        0.4956676147
 H          2.5171148002        4.7249030030       -0.7231685487
 H          4.8342500909        4.3233862624       -1.4749873648
 H          5.9158854399        2.1223789637       -0.9913621740
 H          4.0307575996       -1.2036970079       -1.3657497068
 H          3.6011454947       -2.2452729034        2.0691587445
 H          1.4056897439       -2.9494222825        2.9779926902
 H         -0.6157120666       -2.8012995988        1.5741025839
 H         -1.3516040781       -2.9202456375       -0.8943431996
 C         -0.6321902076       -1.6126137461       -2.3964591359
 C         -1.6926541298       -0.9372657947       -3.2119873715
 C         -0.4228045159       -0.2120804242       -2.8873505023
 H          0.2887255573       -0.0478757444       -3.6837721648
 H         -0.4529935182        0.5823894733       -2.1584088548
 H         -1.8517106605       -1.2731447973       -4.2256825334
 H         -2.5984379168       -0.6370485843       -2.7056452225
 H         -0.0692425278       -2.3943143074       -2.8978758062
