  62
        -98.93469689
 C          1.7528450484        1.5337159261        0.5910058252
 C          1.7556093069        0.2644629464        1.2221486218
 C          2.9046877602       -0.6147526264        0.9488254890
 C          3.8707097141       -0.1791608474        0.1219048554
 C          5.1024741240       -0.9183611119       -0.3237412181
 C          4.8483240945       -1.6551842068       -1.6496739141
 C          4.2667626006       -3.0606254764       -1.5036850238
 H          5.0337579642       -3.7258418443       -1.1013192196
 H          4.0201887514       -3.4155586336       -2.5070362868
 C          3.0175321879       -3.1625364720       -0.6244945326
 H          2.4999418012       -4.0860174636       -0.8919156233
 H          2.3441553102       -2.3327212576       -0.8469284793
 C          3.3376291070       -3.1856217532        0.8779571966
 H          4.4080127271       -3.3403811658        1.0117749455
 H          2.8453130905       -4.0425392835        1.3433330893
 C          2.8954536852       -1.9404237942        1.6599148209
 H          3.5071334006       -1.8535269738        2.5644161602
 H          1.8606990493       -2.0629352905        1.9944261980
 H          5.7923537140       -1.7345037185       -2.1927199477
 H          4.1764661837       -1.0384049433       -2.2520879347
 H          5.8740737646       -0.1632613762       -0.4885331392
 H          5.4431681186       -1.6023184278        0.4479259276
 O          3.8170409651        1.0364756075       -0.4857730450
 C          2.7612190352        1.9169425492       -0.2930161235
 O          2.8603018724        2.9677068623       -0.9515057068
 H         -1.9166108592        1.5967899590        1.5869986723
 C         -1.7860785603        1.6083712471        0.5136229949
 C         -0.5769711866        2.0248853888       -0.0211061943
 C         -0.4129589672        2.0024495942       -1.4029161568
 C         -1.4443416763        1.5853374363       -2.2242185559
 C         -2.6505081786        1.1687594803       -1.6865894456
 C         -2.8172516979        1.1730947721       -0.3087265929
 N         -4.0306145486        0.7160472184        0.2450711613
 S         -4.4636924340       -0.8605493929       -0.1331776326
 O         -4.9073228187       -0.9116086648       -1.5029416607
 O         -5.4363207351       -1.2380136779        0.8667577623
 C         -2.9617113828       -1.7993685397        0.0657946546
 C         -2.1844531790       -2.0869274532       -1.0375144307
 C         -0.9861575532       -2.7570386115       -0.8525253105
 C         -0.5882578439       -3.1236119544        0.4232462276
 C         -1.3791222502       -2.8252524742        1.5212108726
 C         -2.5760091867       -2.1522501519        1.3435175368
 H         -3.2210409397       -1.9078411644        2.1724862121
 H         -1.0614716089       -3.1044855635        2.5128398892
 H          0.3467534502       -3.6417356812        0.5622902549
 H         -0.3637069394       -2.9873978002       -1.7026139214
 H         -2.5308416437       -1.7894573160       -2.0137091077
 H         -4.0811102667        0.8446288361        1.2461840652
 H         -3.4582154117        0.8244161506       -2.3119718758
 H         -1.3071202503        1.5782014889       -3.2950528289
 H          0.5348077393        2.3094490724       -1.8208852603
 C          0.5570535028        2.4216049797        0.8881677502
 H          0.2589990348        2.1574723837        1.9154719320
 C          0.8628978838        3.9107175412        0.8765392790
 C          0.3143642544        4.8644397329       -0.1377945789
 C         -0.2072959473        4.8880284142        1.2655896620
 H          0.0535793899        5.7174882121        1.9051835068
 H         -1.1994325180        4.4953960255        1.4328763667
 H         -0.3296332543        4.4786992963       -0.9121767761
 H          0.9594128520        5.6639199122       -0.4687322836
 H          1.8648142121        4.1219715004        1.2343701345
 O          0.8311796500       -0.1137187908        1.9906434783
