  62
        -98.94184378
 C         -2.7736185932       -0.3655391248       -0.2840781051
 C         -2.0340606180        0.4816529749       -1.1450488427
 C         -2.1022131474        1.9202519254       -0.8492178694
 C         -2.8664069130        2.3566591526        0.1668072871
 C         -2.9914036310        3.7880200854        0.5993552046
 C         -1.9720889249        4.1358524671        1.6927780276
 C         -0.5390050824        3.7101758287        1.3709832980
 H          0.0933392541        4.0545906840        2.1927470536
 H         -0.4724573028        2.6188302741        1.3619571140
 C          0.0082040320        4.2554195003        0.0448407481
 H          1.0280034746        4.6084257759        0.2114658046
 H         -0.5852813002        5.1114537931       -0.2799501870
 C          0.0733605045        3.2197696145       -1.0794524184
 H          0.5529083637        2.3126351227       -0.7000272837
 H          0.7018654920        3.6232535054       -1.8784029145
 C         -1.2742045861        2.8359287170       -1.7056600297
 H         -1.8325784251        3.7386011030       -1.9619787523
 H         -1.0711423063        2.2832717657       -2.6275005329
 H         -2.0021044630        5.2144567071        1.8592223726
 H         -2.2737496031        3.6404824247        2.6186170790
 H         -2.8490092277        4.4356136232       -0.2635579319
 H         -3.9977001617        3.9392350435        0.9941556669
 O         -3.5980201651        1.5205424639        0.9468219074
 C         -3.5415863548        0.1508654240        0.7649838096
 O         -4.2260659450       -0.4990859791        1.5811759377
 H         -0.1925883861       -1.4578520064       -1.1510030171
 C         -0.2370962834       -2.0234142959       -0.2321609927
 C         -1.4731281675       -2.3680143417        0.2957811759
 C         -1.5063381144       -3.0770884740        1.4906291550
 C         -0.3330287027       -3.4132031479        2.1449650705
 C          0.8954924721       -3.0321575382        1.6339002080
 C          0.9350366738       -2.3278390103        0.4390285983
 N          2.1813049179       -1.8603515662       -0.0611868300
 S          2.6826368887       -0.5029530987        0.8269237331
 O          3.0346383466       -0.9490861647        2.1516324527
 O          1.6847455687        0.5421378718        0.7538532752
 C          4.1502924365       -0.0271525971       -0.0650323628
 C          4.0900043064        1.0200005247       -0.9637063948
 C          5.2298628121        1.3560651567       -1.6774771285
 C          6.4009146100        0.6390680743       -1.4847841435
 C          6.4444173409       -0.4116553920       -0.5801820013
 C          5.3093697761       -0.7512820705        0.1381431000
 H          5.2963847066       -1.5537071653        0.8566257174
 H          7.3573327332       -0.9657799737       -0.4332656594
 H          7.2857011769        0.9026445132       -2.0423800954
 H          5.1982356655        2.1734861088       -2.3797470289
 H          3.1589114217        1.5525260152       -1.0784496872
 H          2.0704564904       -1.5550150601       -1.0220137417
 H          1.8136486351       -3.2437336821        2.1569936895
 H         -0.3769419894       -3.9608855813        3.0743623550
 H         -2.4621859639       -3.3377114164        1.9222214837
 C         -2.7398042039       -1.8867521013       -0.3710303846
 H         -3.5914469783       -2.2399327295        0.2253479283
 C         -2.8846771118       -2.4227878509       -1.7805805451
 C         -3.3460748502       -3.8350188552       -1.9732286750
 C         -4.2546964517       -2.6951871894       -2.3212294707
 H         -4.4474040145       -2.4849866842       -3.3624275697
 H         -5.0958863187       -2.4960912225       -1.6730340484
 H         -3.5733265236       -4.4114743412       -1.0892134892
 H         -2.9142721415       -4.4121445817       -2.7762761087
 H         -2.1493039869       -2.0326789276       -2.4709759890
 O         -1.3429108646        0.0850484600       -2.1227206506
