  62
        -98.94134651
 C          2.4911472505        0.3283204104        0.6043399514
 C          2.3596629564       -0.3219461930       -0.6486109660
 C          2.2581385923       -1.7871898112       -0.6020267321
 C          2.1855542817       -2.4182550069        0.5821890872
 C          2.0802217636       -3.9042967563        0.7937987924
 C          0.6550497613       -4.4545361818        0.6481601244
 C          0.1347902337       -4.5484974273       -0.7868769917
 H          0.8748933909       -5.0528350317       -1.4094812149
 H         -0.7556240994       -5.1799589974       -0.7610800306
 C         -0.2411140088       -3.2006750162       -1.4171212349
 H         -0.3895475417       -2.4510474207       -0.6363128233
 H         -1.1957483782       -3.3019693097       -1.9394724724
 C          0.7661167530       -2.6621124501       -2.4330017194
 H          0.4300400826       -1.6707424361       -2.7473023364
 H          0.7846662042       -3.3109409362       -3.3125118293
 C          2.1986266383       -2.5277392980       -1.9046831413
 H          2.6522094183       -3.5132647143       -1.7962175360
 H          2.7756133917       -1.9545926155       -2.6353334989
 H         -0.0213041358       -3.8305606639        1.2380089654
 H          0.6484047607       -5.4576393285        1.0816201335
 H          2.4227895982       -4.0966266952        1.8129721530
 H          2.7447243041       -4.4214159041        0.1003667628
 O          2.2232107744       -1.7504257433        1.7671339833
 C          2.3700676602       -0.3740719085        1.8051809518
 O          2.3851401271        0.1026405434        2.9602645972
 O          2.3495434724        0.2701425053       -1.7582207170
 C          2.5886902917        1.8428399368        0.7170640645
 C          1.4731804054        2.4425493631       -0.1020495158
 C          1.6575964022        3.2901450808       -1.1847345959
 C          0.5673453907        3.7211881997       -1.9217255201
 C         -0.7134275281        3.3057076468       -1.6086170386
 C         -0.9078394409        2.4682958081       -0.5143983597
 C          0.1796435371        2.0687233487        0.2413736878
 H          0.0244520871        1.4173410152        1.0912125498
 N         -2.1949532205        2.0365750961       -0.1513249914
 S         -2.3515230853        0.5598983953        0.6517910929
 O         -2.1760622207        0.7928128739        2.0653818747
 O         -1.5037854413       -0.4460774434        0.0563220256
 C         -4.0654137046        0.1968798851        0.3184396989
 C         -4.3859205687       -0.7356698642       -0.6494764488
 C         -5.7217550416       -0.9905393934       -0.9186957339
 C         -6.7082221978       -0.3094798351       -0.2216475383
 C         -6.3709497075        0.6239047337        0.7476472780
 C         -5.0376064428        0.8819741632        1.0230986883
 H         -4.7266017363        1.5894503472        1.7740082428
 H         -7.1406611056        1.1494792134        1.2893093367
 H         -7.7466857775       -0.5096647882       -0.4329527166
 H         -5.9863485607       -1.7178835031       -1.6691652529
 H         -3.5830011479       -1.2429896545       -1.1603767670
 H         -2.8742538855        2.1430540205       -0.8918838405
 H         -1.5567684121        3.6201379238       -2.2043470508
 H          0.7211434020        4.3723991213       -2.7689051305
 H          2.6538949991        3.5843144572       -1.4712718887
 H          2.3754789942        2.0571387926        1.7781252420
 C          3.9599363535        2.4298185097        0.4256102853
 C          5.2033902613        1.6320325729        0.6809383974
 C          4.8138739378        1.9845558661       -0.7215756056
 H          5.3981719023        2.7317295055       -1.2388662050
 H          4.4268426183        1.2095247149       -1.3624635196
 H          6.0526467357        2.1302351151        1.1239289304
 H          5.0773220002        0.6086801355        1.0051111024
 H          4.0053197924        3.4837462993        0.6838210705
