  62
        -98.94384617
 C         -1.8543470317       -1.1604713484       -0.4068449292
 C         -1.8987828063        0.0303172088        0.3582179599
 C         -3.2056890258        0.3635610497        0.9441738016
 C         -4.2493815580       -0.4619933509        0.7456251155
 C         -5.6454700667       -0.2122991110        1.2362728326
 C         -6.4737897866        0.5469872925        0.1901964152
 C         -5.7744969574        1.7843688272       -0.3727373357
 H         -6.4643317818        2.2547648706       -1.0767911443
 H         -4.8981334567        1.4692107855       -0.9435499016
 C         -5.3468975272        2.8097625117        0.6867287526
 H         -5.8912077202        2.6322738546        1.6150051170
 H         -5.6196216238        3.8080437340        0.3378297162
 C         -3.8448918314        2.8332835411        0.9762047186
 H         -3.6265858520        3.7274077491        1.5662409545
 H         -3.2936362569        2.9174995923        0.0364950827
 C         -3.2971307619        1.6281144993        1.7511561954
 H         -3.8927163648        1.4690415259        2.6524280759
 H         -2.2729412228        1.8640165256        2.0551743671
 H         -7.4220371216        0.8379120338        0.6459724686
 H         -6.6896226076       -0.1311716344       -0.6387768339
 H         -5.6037369368        0.3554755283        2.1638286920
 H         -6.1192647930       -1.1757841811        1.4322631755
 O         -4.1609431916       -1.6094915023        0.0248860950
 C         -2.9688811353       -1.9813955112       -0.5757167018
 O         -3.0261033074       -3.0502171830       -1.2180152037
 O         -0.9043693645        0.7761196043        0.5442520915
 C         -0.5647951419       -1.5779202419       -1.0867335844
 C          0.5623073903       -1.7419843348       -0.0951929457
 C          0.3052384188       -2.1952120760        1.1948601301
 C          1.3261491666       -2.3350377236        2.1165344691
 C          2.6334323816       -2.0430235703        1.7687711741
 C          2.9058043474       -1.6170631327        0.4773032536
 C          1.8775099703       -1.4689505858       -0.4451387590
 H          2.1094664206       -1.1300544200       -1.4434200100
 N          4.2429217295       -1.3171408162        0.1260112130
 S          4.8423302966        0.1237071400        0.7419534316
 O          6.2029153572        0.2229736521        0.2645741459
 O          4.6590745934        0.1269576542        2.1697947218
 C          3.8365464841        1.3755005745       -0.0329906154
 C          4.3323861203        2.0514642524       -1.1311784900
 C          3.5100421030        2.9491107942       -1.7920680610
 C          2.2054236691        3.1378274076       -1.3594601755
 C          1.7210186480        2.4485373804       -0.2585132009
 C          2.5441939848        1.5602365504        0.4155544913
 H          2.1863724055        1.0129404528        1.2724120734
 H          0.7005832757        2.5620535228        0.0709470708
 H          1.5596126171        3.8247173829       -1.8841735921
 H          3.8830719430        3.4906455582       -2.6466685623
 H          5.3489932485        1.8652711190       -1.4384384708
 H          4.4034611089       -1.3319946400       -0.8724162398
 H          3.4390172739       -2.1239083373        2.4798546989
 H          1.1017576623       -2.6746320864        3.1166022314
 H         -0.7133791325       -2.4264268499        1.4753973597
 H         -0.7653737562       -2.5608403865       -1.5390315176
 C         -0.2281764417       -0.5910605091       -2.1894536155
 C          0.4031227932       -1.0541352867       -3.4673675464
 C         -1.0310789035       -0.6201745300       -3.4538202102
 H         -1.2940522108        0.3163920665       -3.9218292423
 H         -1.7963032153       -1.3789112595       -3.5353298853
 H          1.1252389568       -0.4113509676       -3.9486740646
 H          0.6073645054       -2.1090816125       -3.5746408930
 H          0.0587991549        0.3794603855       -1.8003583759
