  62
        -98.95003614
 C         -1.9017583851       -1.0454241985        0.0169097480
 C         -1.3186420631       -1.8118918150       -1.0222888183
 C         -0.2440957619       -2.7269926197       -0.6192669166
 C          0.0930696364       -2.8314483907        0.6791552482
 C          1.1190653411       -3.7679175194        1.2584053557
 C          2.5624463462       -3.2499629611        1.2015906952
 C          3.1926734303       -3.2416010750       -0.1910737847
 H          4.2625298358       -3.0684725960       -0.0608346123
 H          3.0743275463       -4.2224900983       -0.6526524574
 C          2.6301422530       -2.1604662046       -1.1232534301
 H          2.1042785380       -1.4044128739       -0.5362453304
 H          3.4481814945       -1.6408593656       -1.6284356737
 C          1.6875053101       -2.6718356640       -2.2127496082
 H          2.2423189514       -3.2963158909       -2.9173207883
 H          1.3120673051       -1.7999206216       -2.7562497882
 C          0.4858431806       -3.4731234195       -1.6938723482
 H          0.8136748583       -4.4471564856       -1.3295785755
 H         -0.2083043456       -3.6244305310       -2.5245620657
 H          3.1639240351       -3.8950558913        1.8458913033
 H          2.5927255553       -2.2394227616        1.6148743809
 H          0.8470310042       -3.9123138300        2.3062189993
 H          1.0585311934       -4.7302478960        0.7489441026
 O         -0.5119401861       -2.0992896642        1.6511324761
 C         -1.4851223842       -1.1561174095        1.3432827302
 O         -1.8908378020       -0.5076533063        2.3255536477
 O         -1.6877581452       -1.7413471783       -2.2254546043
 C         -2.9592243256       -0.0121414618       -0.3369871919
 C         -2.3859966591        1.3591467831       -0.0713352661
 C         -2.9307253021        2.2713920200        0.8219794788
 C         -2.2994267013        3.4819713050        1.0520887981
 C         -1.1136234471        3.7983742044        0.4152586752
 C         -0.5647178704        2.8966132531       -0.4911063190
 C         -1.2167496012        1.6999269380       -0.7423750914
 H         -0.7951111195        1.0085354029       -1.4580432794
 N          0.6329949410        3.1959079161       -1.1631721333
 S          1.8469952828        2.0635842806       -1.3517314940
 O          2.9471452919        2.8135086594       -1.9173352367
 O          1.3708494146        0.9482649522       -2.1258970083
 C          2.2834648084        1.5456686490        0.2988153403
 C          1.4385834357        0.6994752658        0.9888135015
 C          1.7622544914        0.3358889010        2.2866473788
 C          2.9277476432        0.8123869594        2.8670962824
 C          3.7704781205        1.6566363930        2.1597471184
 C          3.4440208734        2.0338086887        0.8671069577
 H          4.0678855267        2.6883410671        0.2802894661
 H          4.6772713383        2.0234818542        2.6128516825
 H          3.1771389048        0.5210357568        3.8752190957
 H          1.0916015468       -0.3129191299        2.8295962908
 H          0.5393671208        0.3345642529        0.5164165061
 H          1.0285744813        4.0941065469       -0.9253273110
 H         -0.6150032584        4.7352396071        0.6121289928
 H         -2.7299478029        4.1828711153        1.7509607215
 H         -3.8409311742        2.0315087443        1.3457333387
 H         -3.1131457176       -0.1139618618       -1.4213728318
 C         -4.2668191778       -0.2864745864        0.3721936171
 C         -5.5473070667        0.2492192460       -0.1928798186
 C         -5.2545372417       -1.2187529524       -0.2601334784
 H         -5.8126990418       -1.8875373539        0.3776978344
 H         -4.9927722501       -1.6466751994       -1.2170496726
 H         -6.3114816489        0.5880234978        0.4899719958
 H         -5.4886255985        0.8195756246       -1.1076387040
 H         -4.1603487767       -0.3307529974        1.4496945880
