  62
        -98.94433054
 C         -2.3810152607       -1.1253662398        0.2339141194
 C         -2.4069556454        0.1765646028       -0.3223678710
 C         -3.4445658590        1.0729384477        0.2053622967
 C         -4.2687816953        0.6479859476        1.1798090254
 C         -5.3587199594        1.4522455528        1.8349237798
 C         -6.6814359117        1.4629744306        1.0563761802
 C         -6.6781836647        2.3038074238       -0.2208459793
 H         -6.3136450806        3.3061436957        0.0061604312
 H         -7.7167810214        2.4000412793       -0.5434226674
 C         -5.8582533337        1.7042301210       -1.3717201504
 H         -6.4347547630        1.7612751413       -2.2977691311
 H         -5.6728961936        0.6459302130       -1.1744242801
 C         -4.5213754068        2.4001621601       -1.6281744528
 H         -4.6988801499        3.4270770097       -1.9555070634
 H         -4.0097181419        1.8730398562       -2.4375021575
 C         -3.5819564723        2.4305766563       -0.4153131690
 H         -3.9404727898        3.1507424955        0.3200443640
 H         -2.5905754197        2.7426695461       -0.7541743765
 H         -7.4488950041        1.8599307205        1.7247270227
 H         -6.9522425728        0.4328823733        0.8138612650
 H         -5.5372291602        0.9949752357        2.8105078417
 H         -5.0166059251        2.4760984890        1.9887325950
 O         -4.1872846223       -0.5999724819        1.7127382175
 C         -3.2557957442       -1.5138356963        1.2512030260
 O         -3.3022929277       -2.6233743095        1.8190562968
 H          0.6052483557       -0.9415663330       -1.7234031263
 C          0.8844586117       -1.0695323505       -0.6898430428
 C          0.0088018551       -1.6815616580        0.1914172040
 C          0.3831990935       -1.8043594405        1.5271738312
 C          1.6057650586       -1.3311895532        1.9629601656
 C          2.4787110960       -0.7190866243        1.0792373262
 C          2.1069811268       -0.5759683377       -0.2498756802
 N          2.9819382735        0.0422191836       -1.1571836826
 S          3.8026443380        1.4275346345       -0.6911320447
 O          3.0590186355        2.2020234126        0.2754124696
 O          4.1402397357        2.0970395314       -1.9286773970
 C          5.2978034683        0.7993255968        0.0475824464
 C          5.7099605409        1.2758905866        1.2765918446
 C          6.8843440923        0.7860305848        1.8269060630
 C          7.6228597345       -0.1661666737        1.1415004728
 C          7.1969223119       -0.6326498439       -0.0932689783
 C          6.0249436043       -0.1457732864       -0.6495328136
 H          5.6616268114       -0.4815680019       -1.6062522193
 H          7.7734527492       -1.3737050571       -0.6231314573
 H          8.5353680104       -0.5469536369        1.5723377944
 H          7.2166918568        1.1482669432        2.7865298914
 H          5.0998150931        2.0111633393        1.7770169521
 H          2.5955630196        0.1461839693       -2.0844238445
 H          3.4286776037       -0.3370657469        1.4154014592
 H          1.8838891821       -1.4365599715        3.0006717428
 H         -0.3070292745       -2.2663514448        2.2199262571
 C         -1.3617151400       -2.1560697463       -0.2258145430
 H         -1.5881957224       -3.0728806441        0.3347122458
 C         -1.4925509634       -2.4462668055       -1.7060668035
 C         -0.8523922257       -3.6767091547       -2.2729294817
 C         -2.3437673710       -3.5954641851       -2.1515521737
 H         -2.9302196456       -3.4829378556       -3.0512056940
 H         -2.8288646944       -4.1833479982       -1.3859728463
 H         -0.3228364713       -4.3212425937       -1.5879027867
 H         -0.4137066127       -3.6244868062       -3.2577088787
 H         -1.5115486889       -1.5530344299       -2.3183954591
 O         -1.6158344537        0.5790843944       -1.2159172542
