  62
        -98.93984390
 C         -2.6413514285       -1.3220981611        0.3288053657
 C         -2.8857344427       -0.5187153974       -0.8124076706
 C         -3.8914119463        0.5411129927       -0.6429865569
 C         -4.5148606923        0.7007416230        0.5374588819
 C         -5.5665468843        1.7282279897        0.8564106948
 C         -4.9990731826        3.0991518631        1.2492998538
 C         -4.3982474421        3.9086985821        0.0994324314
 H         -5.1195115505        3.9699681912       -0.7161359538
 H         -4.2395071636        4.9230519177        0.4707098296
 C         -3.0644260411        3.3643207805       -0.4310065498
 H         -2.3566605339        4.1878031200       -0.5506759762
 H         -2.6338757983        2.6764518831        0.3006982577
 C         -3.1637286650        2.6533293842       -1.7807261279
 H         -3.4723814610        3.3660103431       -2.5488659587
 H         -2.1706725421        2.2828085485       -2.0483558526
 C         -4.1336903581        1.4645909992       -1.7992475737
 H         -3.9643491360        0.8988719535       -2.7188830733
 H         -5.1637105615        1.8201780888       -1.7922182912
 H         -5.8176392565        3.6780262329        1.6830029184
 H         -4.2452342731        2.9551301421        2.0267055837
 H         -6.2397518645        1.8411647839        0.0061957760
 H         -6.1361480910        1.3363737592        1.7017689875
 O         -4.2589855323       -0.0962602858        1.6082303768
 C         -3.3167312084       -1.1068589825        1.5347116065
 O         -3.1758485827       -1.7486951822        2.5946247530
 O         -2.3080145273       -0.6560000466       -1.9226094108
 C         -1.6420548234       -2.4679226899        0.3452305952
 C         -0.2474778782       -1.9751843556        0.6366532806
 C          0.5280019171       -2.5678102418        1.6258988647
 C          1.8125410151       -2.1176602171        1.8771330468
 C          2.3472858269       -1.0685412969        1.1513139694
 C          1.5813211339       -0.4699407956        0.1592866150
 C          0.2948395317       -0.9252092209       -0.0918743023
 H         -0.2923550086       -0.4664987770       -0.8741525981
 N          2.1106322932        0.6053728013       -0.5762390330
 S          3.6180683255        0.4005568155       -1.2892023893
 O          3.6444607364        1.3297798473       -2.3971220399
 O          3.8670760475       -0.9867646576       -1.6063556522
 C          4.7594038093        0.9562438647       -0.0405886492
 C          4.5948931171        2.2282839768        0.4717978969
 C          5.4796684882        2.6798380808        1.4378930163
 C          6.5098850446        1.8579040008        1.8704108624
 C          6.6639828406        0.5849494221        1.3431495781
 C          5.7815821186        0.1266824448        0.3770789889
 H          5.8585851525       -0.8573108898       -0.0573359065
 H          7.4657146978       -0.0520981418        1.6804375399
 H          7.1965773949        2.2119355732        2.6230190069
 H          5.3631058247        3.6691814706        1.8501834638
 H          3.7837415860        2.8358127377        0.1064330255
 H          1.4571884636        0.9915290017       -1.2427336547
 H          3.3462793532       -0.7128755608        1.3436048568
 H          2.4033740499       -2.5864382798        2.6490768846
 H          0.1130388886       -3.3793060497        2.2057042342
 H         -1.9501764151       -3.1024628161        1.1908865740
 C         -1.7141875452       -3.3274115478       -0.9114345863
 C         -0.6216995563       -3.4114298277       -1.9308632438
 C         -0.8803299549       -4.5698403622       -1.0177892058
 H         -1.3297536277       -5.4630679705       -1.4243268847
 H         -0.1611718185       -4.7529985523       -0.2335958196
 H         -0.9121712456       -3.4886187663       -2.9677636729
 H          0.2758008710       -2.8315900048       -1.7783073946
 H         -2.7273872470       -3.3915629091       -1.2954865952
