  62
        -98.94835553
 C          0.8488969786        1.2163416534        0.5326059369
 C          1.2464104753        0.5461448130       -0.6489488631
 C          2.1796633686       -0.5738437018       -0.4595252176
 C          2.4776032246       -0.9774200145        0.7882498578
 C          3.4618587038       -2.0590909871        1.1268481098
 C          4.8628205540       -1.4729897102        1.3549220265
 C          5.3180963446       -0.5144364743        0.2539490807
 H          4.6817737140        0.3735421158        0.2696461410
 H          6.3292311847       -0.1880917964        0.5071885709
 C          5.3141783476       -1.1170094615       -1.1581558830
 H          6.2427062611       -0.8355464791       -1.6592592726
 H          5.2978724933       -2.2055461178       -1.0953383543
 C          4.1646883260       -0.6425129836       -2.0498493090
 H          4.1193100621        0.4492812796       -2.0376022904
 H          4.3831403631       -0.9495590280       -3.0758738689
 C          2.7768145978       -1.1906555706       -1.6921732675
 H          2.8288908540       -2.2759450523       -1.6000066888
 H          2.0945945152       -0.9413988416       -2.5094206146
 H          4.8603809054       -0.9283926320        2.3021306895
 H          5.5731902153       -2.2974567080        1.4397326204
 H          3.1321405416       -2.5546213474        2.0417827578
 H          3.4931145780       -2.7862909276        0.3180020343
 O          1.9504729862       -0.4010902626        1.9005915123
 C          1.1746118281        0.7428676136        1.8028084314
 O          0.8375719138        1.2334220660        2.9006212905
 O          0.8656101172        0.8788667262       -1.8002556036
 C          0.0332194841        2.4930762804        0.4403781416
 C         -1.2891845104        2.2314182644       -0.2363608743
 C         -1.7733283818        2.9882616426       -1.2952686718
 C         -3.0079822812        2.7024161536       -1.8515887708
 C         -3.7826829045        1.6664123886       -1.3646592873
 C         -3.3109594618        0.9100267515       -0.2967802107
 C         -2.0725264641        1.1939654755        0.2552281347
 H         -1.7162033366        0.6093874263        1.0918031569
 N         -4.0865485967       -0.1282542603        0.2380946981
 S         -3.3796600917       -1.4589049882        0.9405223741
 O         -4.4275563829       -2.4594094269        0.9293528142
 O         -2.8515061806       -1.1300943533        2.2412208197
 C         -2.0697206683       -1.9941085667       -0.1451927065
 C         -0.9170297925       -2.5029649096        0.4157569511
 C          0.0573464179       -3.0333208158       -0.4137249141
 C         -0.1313334431       -3.0332905745       -1.7863642295
 C         -1.2857163568       -2.5005576900       -2.3367320477
 C         -2.2706817049       -1.9848036619       -1.5109638596
 H         -3.1836161541       -1.5809130189       -1.9167268469
 H         -1.4238318951       -2.4905981220       -3.4057663901
 H          0.6254980096       -3.4499439819       -2.4314964012
 H          0.9545906648       -3.4457008631        0.0185030504
 H         -0.8027382868       -2.4705653963        1.4885011576
 H         -4.9253960819       -0.3583363429       -0.2731252961
 H         -4.7466087476        1.4459825678       -1.7968464378
 H         -3.3711292894        3.2944513610       -2.6776552207
 H         -1.1841960654        3.8001176220       -1.6877973901
 H         -0.1784158487        2.7914489153        1.4781378661
 C          0.8538455428        3.5803766797       -0.2229924212
 C          0.6029040002        5.0208120730        0.1036227086
 C          1.8433974363        4.3441505292        0.6026235920
 H          2.7916034966        4.6090708826        0.1592044267
 H          1.9073732883        4.0980221063        1.6530459202
 H          0.7026995252        5.7541379084       -0.6822704019
 H         -0.1745986342        5.2427709149        0.8189633730
 H          1.1413819075        3.3260697041       -1.2366058264
