  62
        -98.94286419
 C         -1.5783107113       -1.4560217897        0.1163781665
 C         -2.7128251704       -0.9688537901        0.8118855337
 C         -3.3579900273        0.2205275115        0.2438525913
 C         -2.8389245246        0.7987610276       -0.8543535606
 C         -3.3837371920        2.0134243111       -1.5565528144
 C         -2.9489681240        3.3473733635       -0.9336231491
 C         -3.6098651415        3.6910381684        0.4017245384
 H         -3.3884652563        4.7399183069        0.6091948231
 H         -4.6922887673        3.6002386426        0.3069112713
 C         -3.1213391423        2.8415269622        1.5834924478
 H         -2.1827621990        2.3500889422        1.3152460596
 H         -2.9094205444        3.4900403172        2.4368330061
 C         -4.1166208582        1.7812444846        2.0546019152
 H         -5.0101513594        2.2681606506        2.4515252902
 H         -3.6555955305        1.2127563543        2.8666221527
 C         -4.5430088985        0.7895164011        0.9644933413
 H         -5.0701008804       -0.0389792023        1.4444011527
 H         -5.2200467088        1.2730473957        0.2603950678
 H         -1.8644551128        3.3391211378       -0.8032914878
 H         -3.1936153514        4.1363230034       -1.6485452816
 H         -3.0101547464        1.9729669219       -2.5818304444
 H         -4.4727299844        1.9631765456       -1.5828876084
 O         -1.7344508205        0.3164886517       -1.4801211523
 C         -1.0675782638       -0.8104498596       -1.0126167181
 O         -0.0645381579       -1.1135186574       -1.6802324842
 O         -3.1616683799       -1.4993116789        1.8636546226
 C         -0.8534666942       -2.6577530786        0.6969312194
 C          0.6289503376       -2.3799300455        0.7319028375
 C          1.5900706917       -3.2097717201        0.1720755344
 C          2.9288770205       -2.8577983196        0.2099813070
 C          3.3374862121       -1.6743356369        0.7954468363
 C          2.3827732801       -0.8359623813        1.3572443186
 C          1.0472707259       -1.2003505647        1.3371302492
 H          0.3060656376       -0.5425219292        1.7758645271
 N          2.7807774859        0.3889091672        1.9329661905
 S          3.6207532958        1.4456309075        0.9371881689
 O          4.9674340852        0.9597186147        0.7713740047
 O          3.4860329322        2.7404275143        1.5677216246
 C          2.7666534176        1.4269672419       -0.6264511331
 C          3.2187735256        0.6091236436       -1.6412243390
 C          2.5175664053        0.5750189137       -2.8348934401
 C          1.3849214370        1.3560113062       -2.9932249776
 C          0.9466397757        2.1764145599       -1.9663451201
 C          1.6370738330        2.2080670145       -0.7667558050
 H          1.3281511373        2.8343969594        0.0561355893
 H          0.0619901201        2.7796364836       -2.0966385427
 H          0.8338777957        1.3205293155       -3.9194859992
 H          2.8493019069       -0.0684431908       -3.6333929831
 H          4.1072771152        0.0208097175       -1.4817492967
 H          2.0183651830        0.8830909273        2.3748059082
 H          4.3734030685       -1.3763969759        0.8154678940
 H          3.6643990711       -3.5114031827       -0.2337800527
 H          1.2919583334       -4.1215789933       -0.3181746868
 H         -1.2130080015       -2.7171107539        1.7385616927
 C         -1.2084117581       -3.9848022436        0.0437762812
 C         -2.5157302511       -4.1724904128       -0.6647471558
 C         -1.2368980990       -4.1580569890       -1.4442397804
 H         -0.8811171680       -5.0901104292       -1.8584942664
 H         -1.0103539233       -3.2947546993       -2.0494382901
 H         -3.0352467716       -5.1109116547       -0.5402918399
 H         -3.1723639971       -3.3179904189       -0.7413335045
 H         -0.8568166315       -4.8306906389        0.6266099325
