  62
        -98.94493892
 C          2.2027721232        0.9711215105        0.5416726371
 C          2.3155612672        0.1375287913       -0.5975991856
 C          3.1175350643       -1.0796139001       -0.4168062254
 C          3.6481172360       -1.3606240422        0.7871286665
 C          4.4740238835       -2.5703118437        1.1316517347
 C          5.9607393403       -2.4313576995        0.7759206554
 C          6.2825005205       -2.5013564207       -0.7174097814
 H          7.3649686685       -2.6124716752       -0.8061950531
 H          5.8272756892       -3.3956256031       -1.1442052681
 C          5.8462301042       -1.2668175864       -1.5187239012
 H          6.6577747401       -0.9574253219       -2.1809964338
 H          5.6566959661       -0.4364784958       -0.8346829164
 C          4.6083318767       -1.4810083104       -2.3899632090
 H          4.8279202025       -2.2181469756       -3.1654430139
 H          4.3671157308       -0.5356534996       -2.8824003845
 C          3.3651667692       -1.9417573914       -1.6175366995
 H          2.4961373003       -1.8511007136       -2.2745044569
 H          3.4702059599       -2.9857739100       -1.3222018515
 H          6.4921103442       -3.2427410040        1.2785166308
 H          6.3304306285       -1.4882353897        1.1847781318
 H          4.0600340323       -3.4498356647        0.6374467482
 H          4.3896901303       -2.7069767245        2.2120362085
 O          3.4697310350       -0.5589124936        1.8715143438
 C          2.7592539130        0.6276165923        1.7727236130
 O          2.6837155946        1.2713696178        2.8398243596
 O          1.7777712070        0.3934129342       -1.7057596629
 C          1.4228555988        2.2707601845        0.4534048360
 C         -0.0050952564        1.9877011272        0.0526601896
 C         -0.6739631973        2.6812705193       -0.9467842810
 C         -1.9808664903        2.3575305335       -1.2690254050
 C         -2.6499861808        1.3490815347       -0.6007768368
 C         -1.9923664117        0.6527361469        0.4051419970
 C         -0.6843597638        0.9796811485        0.7261039058
 H         -0.1711544947        0.4331134089        1.5090251906
 N         -2.6679529560       -0.3633821722        1.1051543058
 S         -3.4413422197       -1.5595886979        0.2135260944
 O         -3.4914830737       -2.7082778966        1.0925309155
 O         -2.8130584853       -1.7597099067       -1.0715617933
 C         -5.0909180088       -0.9236797963       -0.0007367890
 C         -5.8152728121       -0.6007762432        1.1301014339
 C         -7.1013641546       -0.1066895609        0.9822727548
 C         -7.6394360612        0.0521663177       -0.2862617706
 C         -6.9009772773       -0.2809334241       -1.4114153385
 C         -5.6131557819       -0.7746719222       -1.2705421850
 H         -4.9993423889       -1.0422572940       -2.1160356443
 H         -7.3210468851       -0.1577932871       -2.3967027881
 H         -8.6404956674        0.4375088089       -0.3986618197
 H         -7.6787599645        0.1528448755        1.8549206255
 H         -5.3614562546       -0.7437102205        2.0965280179
 H         -2.1153855651       -0.7790027919        1.8413928028
 H         -3.6653680358        1.0910543565       -0.8531413330
 H         -2.4857942548        2.8992968838       -2.0541498544
 H         -0.1691631672        3.4682735670       -1.4822068554
 H          1.4134789185        2.6895899551        1.4705449906
 C          2.1318616925        3.2416192110       -0.4676272015
 C          2.0000115670        4.7187397778       -0.2540704115
 C          3.2900455902        4.0273494146        0.0669937661
 H          4.1413370728        4.1938512898       -0.5759109360
 H          3.5503519049        3.8805691153        1.1054794806
 H          1.9685836938        5.3643661947       -1.1186562427
 H          1.3865052427        5.0517544490        0.5692598536
 H          2.2045845960        2.8722696789       -1.4841197409
