  62
        -98.93623430
 C         -2.4535946198       -0.1414254124       -0.2941909983
 C         -2.2165802925       -1.3154890118       -1.0472278436
 C         -1.6514625300       -2.4700195917       -0.3308922191
 C         -1.3597407810       -2.3526344935        0.9775048965
 C         -0.7740509663       -3.3452011153        1.9602255576
 C         -0.0988683602       -4.6233855429        1.4697456371
 C          1.2039669875       -4.4041237393        0.7017183867
 H          1.9575747772       -4.0272449207        1.3981041430
 H          1.5456784839       -5.3730614740        0.3298808492
 C          1.1307399041       -3.4221160353       -0.4654477588
 H          2.1234777249       -3.3808506845       -0.9234357223
 H          0.9115916598       -2.4189269790       -0.0914684515
 C          0.1295526585       -3.7849711892       -1.5612356084
 H          0.3257362780       -4.7984592152       -1.9176339901
 H          0.2926598758       -3.0977591577       -2.3958366244
 C         -1.3538378512       -3.6821006975       -1.1664074308
 H         -1.9399050186       -3.5728818658       -2.0838307067
 H         -1.6951583261       -4.5848519745       -0.6652724633
 H          0.1396880365       -5.2093852596        2.3618109936
 H         -0.7938404074       -5.2148262472        0.8807770538
 H         -0.0596342991       -2.7700338881        2.5588049338
 H         -1.5929556798       -3.6206289614        2.6346671815
 O         -1.6300967035       -1.2103949582        1.6713959380
 C         -2.1202345880       -0.0707192946        1.0592365149
 O         -2.2277720976        0.9052317194        1.8279807788
 O         -2.4564525015       -1.3942290084       -2.2836989093
 C         -2.8875120936        1.1060549269       -1.0473985770
 C         -1.9405395380        2.2228310287       -0.6838394929
 C         -2.3339702079        3.4815078325       -0.2534787127
 C         -1.3858037491        4.4102700073        0.1430348618
 C         -0.0416002295        4.0893750792        0.1589850696
 C          0.3618690853        2.8325145507       -0.2784666378
 C         -0.5813335217        1.9367002598       -0.7462760897
 H         -0.2607102822        0.9667344038       -1.0961336977
 N          1.7197177491        2.4407039207       -0.2537263365
 S          2.1229665758        1.0850404789        0.6808753744
 O          1.1983575209        0.0092514173        0.4482166562
 O          2.3052063565        1.5045227206        2.0572732120
 C          3.7096656856        0.6857250386       -0.0261116258
 C          3.7523246945       -0.1624344987       -1.1150801519
 C          4.9779779621       -0.4490079301       -1.6948833787
 C          6.1343128404        0.1184497869       -1.1807237344
 C          6.0761765048        0.9676462424       -0.0861158249
 C          4.8531589751        1.2565718149        0.4984691083
 H          4.7632170731        1.8988666093        1.3595002028
 H          6.9771792631        1.4044554424        0.3133685267
 H          7.0866285389       -0.1057245742       -1.6346426406
 H          5.0255836507       -1.1118535976       -2.5438981971
 H          2.8281426171       -0.5852821632       -1.4752645832
 H          2.3174472870        3.1992571607        0.0524657113
 H          0.6905355381        4.7974062807        0.5187180489
 H         -1.7029183898        5.3863803608        0.4783840074
 H         -3.3814585759        3.7289897139       -0.1974635224
 H         -2.7260574499        0.8498314580       -2.1085725742
 C         -4.3566005968        1.4710549084       -0.9102159346
 C         -5.3745628100        0.4390293509       -0.5294736995
 C         -5.0412815427        1.5482864370        0.4202363174
 H         -5.7746540909        2.3265476538        0.5739626950
 H         -4.4529475678        1.3204693745        1.2949123081
 H         -6.3325672054        0.4545332682       -1.0272445255
 H         -5.0155495684       -0.5537750575       -0.2990983204
 H         -4.6672798107        2.1938127645       -1.6586146147
