  62
        -98.93946683
 C          2.5732814811       -0.9004238245        0.3297365120
 C          2.7120169649        0.4380060502       -0.1102420383
 C          4.0301214067        0.7942257683       -0.6506262793
 C          4.9970562019       -0.1380679127       -0.7283662054
 C          6.3828763027        0.0666387231       -1.2778596199
 C          7.3740196311        0.6590714085       -0.2666775700
 C          7.1648566683        2.1384252921        0.0591977782
 H          7.1154394727        2.7098720195       -0.8681973083
 H          8.0503867693        2.4746597977        0.6022233407
 C          5.9226113780        2.4296769575        0.9126677020
 H          6.1875135907        3.1192796687        1.7173207537
 H          5.5789820849        1.5055831219        1.3831507885
 C          4.7582606857        3.0555945760        0.1448216779
 H          5.0483892840        4.0433694366       -0.2200961342
 H          3.9214950836        3.1840976264        0.8359475651
 C          4.2650102787        2.2212283719       -1.0446376723
 H          4.9791028733        2.2776074013       -1.8659653466
 H          3.3100987202        2.6324861107       -1.3813386054
 H          8.3760924281        0.5394433677       -0.6849702736
 H          7.3260947914        0.0725052141        0.6536919973
 H          6.7459722103       -0.9183303333       -1.5792721304
 H          6.3364417666        0.7045598656       -2.1609476098
 O          4.8122977948       -1.4224495660       -0.3203808354
 C          3.6078187802       -1.8298532172        0.2301077398
 O          3.5804846154       -3.0279956694        0.5795202987
 H         -1.2138579950       -0.1676891384        1.2250326900
 C         -1.0504676492       -0.5504936606        0.2296983411
 C          0.1455079671       -1.1758015977       -0.0822304131
 C          0.3194723675       -1.6709259423       -1.3722108494
 C         -0.6677340041       -1.5207672660       -2.3263250729
 C         -1.8515451512       -0.8732356343       -2.0180859395
 C         -2.0414601122       -0.3871356818       -0.7325918624
 N         -3.2305917850        0.2893986860       -0.4106542797
 S         -4.6818555034       -0.3086176852       -1.0304415379
 O         -4.7598881502       -1.7380273822       -0.8252593643
 O         -4.8195840047        0.1388725321       -2.3937879493
 C         -5.8602064822        0.5375917992        0.0040493046
 C         -6.4327910451       -0.1291823375        1.0703865024
 C         -7.3297206198        0.5491469941        1.8808805193
 C         -7.6336040308        1.8756934644        1.6145223866
 C         -7.0503192720        2.5315289419        0.5402813538
 C         -6.1543721348        1.8589403265       -0.2752206642
 H         -5.6836109948        2.3245478965       -1.1253118462
 H         -7.2912066754        3.5622978254        0.3358449828
 H         -8.3314780165        2.4014688987        2.2468902609
 H         -7.7873724944        0.0415677827        2.7147516693
 H         -6.1722357849       -1.1624622115        1.2349523518
 H         -3.3042926191        0.4866651627        0.5779169184
 H         -2.6282698485       -0.7455345235       -2.7547587375
 H         -0.5156403088       -1.9083734923       -3.3229010220
 H          1.2454995924       -2.1742297278       -1.6174582548
 C          1.2562741278       -1.3674795832        0.9225187268
 H          1.3682126877       -2.4470875994        1.1009374299
 C          1.0125396937       -0.6763247204        2.2479607688
 C          0.1986904159       -1.3463581919        3.3129815696
 C          1.6826849496       -1.2144208966        3.4749564839
 H          2.0633567102       -0.5149411740        4.2040392494
 H          2.2935213187       -2.0979269620        3.3577361873
 H         -0.2016262681       -2.3250602463        3.0949464417
 H         -0.4376089140       -0.7372463090        3.9374235551
 H          0.9437109901        0.4009126202        2.1480989233
 O          1.7883416256        1.2906394630       -0.0560842587
