  62
        -98.94854569
 C          1.5836101549        1.0708049263        0.8562469362
 C          2.5459576545        0.4920110423       -0.0058178100
 C          2.9456931029       -0.8833455831        0.3143967691
 C          2.3770123024       -1.5236167103        1.3511705908
 C          2.6575797671       -2.9371193683        1.7825113615
 C          1.8691462538       -3.9849368339        0.9843297369
 C          2.3732353649       -4.2325224137       -0.4381953263
 H          3.4501852748       -4.4060827009       -0.4198494664
 H          1.8991680775       -5.1515948489       -0.7889423290
 C          2.0443894193       -3.1058768287       -1.4279311043
 H          1.2378140509       -2.4889906608       -1.0236404021
 H          1.6680455174       -3.5400971511       -2.3580158196
 C          3.2299329041       -2.2126233328       -1.7947722576
 H          2.8658996838       -1.4171397885       -2.4503933426
 H          3.9696256264       -2.7961420559       -2.3488048289
 C          3.9273422403       -1.5557339071       -0.5973376497
 H          4.5096918689       -2.2959676587       -0.0488969177
 H          4.6049338622       -0.7874381194       -0.9788057062
 H          0.8211443007       -3.6766826858        0.9419155721
 H          1.9213865284       -4.9263415536        1.5368476713
 H          2.3633545035       -3.0084187434        2.8319319978
 H          3.7255599717       -3.1437094751        1.7053000614
 O          1.4585894714       -0.9327938138        2.1588196751
 C          1.0164950386        0.3559172075        1.9103499923
 O          0.1305985269        0.7518799677        2.6972243522
 O          3.0512159782        1.0863746855       -0.9941663358
 C          1.0100649572        2.4467229710        0.5496702326
 C          0.2725895285        2.3202292744       -0.7625631843
 C          0.5650299119        3.0503046333       -1.9049476077
 C         -0.0887050439        2.7676501160       -3.0934110865
 C         -1.0187113708        1.7479021164       -3.1706614776
 C         -1.3333420113        1.0241624906       -2.0235231058
 C         -0.7155770606        1.3444492594       -0.8282022483
 H         -0.9569133284        0.7863432106        0.0628527214
 N         -2.2738838937       -0.0119967575       -2.0602000481
 S         -2.2814757316       -1.2680360251       -0.9548403596
 O         -0.9634953183       -1.5850314700       -0.4600827847
 O         -2.9720155559       -2.3354672246       -1.6496400405
 C         -3.3425818707       -0.6606177274        0.3386777165
 C         -2.8648233980       -0.4462233531        1.6145879590
 C         -3.7336780450        0.0353942813        2.5825943020
 C         -5.0575096869        0.2884021363        2.2613158591
 C         -5.5246696889        0.0619367534        0.9746678030
 C         -4.6612080349       -0.4159596997        0.0037791972
 H         -4.9834931825       -0.6144875629       -1.0047485581
 H         -6.5556887888        0.2578050132        0.7279088231
 H         -5.7276061848        0.6629871958        3.0190028951
 H         -3.3597035065        0.2138395635        3.5781954240
 H         -1.8272261477       -0.6389340135        1.8424377231
 H         -2.5696439892       -0.3003479018       -2.9802106885
 H         -1.4949883754        1.5055920345       -4.1084095266
 H          0.1505554069        3.3345112978       -3.9805334948
 H          1.3173986485        3.8209107593       -1.8737987962
 H          0.2772196813        2.6573328322        1.3415403180
 C          2.0768499073        3.5179571864        0.5650956180
 C          1.6920851577        4.9487738934        0.7893649606
 C          2.4137561301        4.1898106592        1.8610126242
 H          3.4463937850        4.4327368516        2.0615139669
 H          1.8593209923        3.8866129485        2.7373382518
 H          2.2305063051        5.7173784075        0.2560241792
 H          0.6456264581        5.1664428327        0.9403226033
 H          2.8936456556        3.3061732265       -0.1141660048
