  62
        -98.93786142
 C         -2.5875481060       -1.1508566527        0.5044347187
 C         -3.4433339627       -0.8485693699       -0.5839142968
 C         -4.5819559739        0.0331884457       -0.2748219772
 C         -4.7507637699        0.4907330617        0.9780249069
 C         -5.8287417670        1.4415964138        1.4091233025
 C         -5.3598515039        2.8992963703        1.2997073670
 C         -4.7180052988        3.2427191660       -0.0445838554
 H         -4.4557117527        4.3025820483       -0.0178155953
 H         -3.7849097004        2.6837879557       -0.1473143497
 C         -5.6103830669        2.9674986765       -1.2629648469
 H         -6.6504916369        2.8768663707       -0.9476480617
 H         -5.5505981366        3.8218173645       -1.9405506996
 C         -5.2164357852        1.7299371200       -2.0713549998
 H         -4.1506930107        1.7723177777       -2.3094575139
 H         -5.7642198619        1.7532331782       -3.0172059136
 C         -5.5081828046        0.3783945282       -1.4071751918
 H         -6.5486017388        0.3466000097       -1.0776447370
 H         -5.3619549735       -0.4000941408       -2.1616993922
 H         -6.2178669464        3.5514408128        1.4729015692
 H         -4.6258646621        3.0866323469        2.0869146270
 H         -6.7117900806        1.2855180344        0.7925404474
 H         -6.0803913591        1.2271270147        2.4491727006
 O         -3.9144712430        0.1709044873        1.9990418565
 C         -2.8159260417       -0.6418577176        1.7858869818
 O         -2.1270705198       -0.8480164886        2.8063354259
 O         -3.2849912069       -1.2787637570       -1.7542570217
 C         -1.3592076420       -2.0372479215        0.3730218952
 C         -0.1656153089       -1.2170878663       -0.0440634553
 C         -0.1881395700       -0.4440531673       -1.2012290213
 C          0.9167172635        0.3038341584       -1.5644662807
 C          2.0593454221        0.3043779393       -0.7829200909
 C          2.0910347114       -0.4591780485        0.3756321184
 C          0.9822536425       -1.2159104781        0.7342345463
 H          1.0068573271       -1.8012909986        1.6440115660
 N          3.2410196049       -0.4467394165        1.1821094273
 S          4.7294201731       -0.7331713828        0.4590127285
 O          4.5890260110       -1.5571991185       -0.7188178352
 O          5.5669440823       -1.2559338112        1.5159915503
 C          5.3088543333        0.8882132982        0.0071907726
 C          5.6238674062        1.1648344006       -1.3087288480
 C          6.0802090660        2.4322212739       -1.6362875550
 C          6.2138744364        3.3944855820       -0.6471343567
 C          5.8964894140        3.0994495027        0.6705315820
 C          5.4406461550        1.8343079950        1.0046854794
 H          5.1880370009        1.5639289168        2.0164693438
 H          6.0024663384        3.8502820648        1.4369560209
 H          6.5681271566        4.3802456412       -0.9043635445
 H          6.3287235762        2.6631566680       -2.6597220668
 H          5.5008889124        0.3862639439       -2.0448326489
 H          3.1471034508       -0.9764127993        2.0365940590
 H          2.9206682447        0.8892564726       -1.0612977731
 H          0.8876161812        0.8969979843       -2.4659818497
 H         -1.0791122721       -0.4422348870       -1.8107071498
 H         -1.1654880935       -2.4060466976        1.3928778576
 C         -1.5931613003       -3.2583959978       -0.5066111530
 C         -0.9057130095       -3.4950310414       -1.8143413332
 C         -0.5277100835       -4.3094842475       -0.6162526831
 H         -0.8163051449       -5.3489997202       -0.5777978669
 H          0.4261645920       -4.0993592887       -0.1542451241
 H         -1.4798420752       -3.9602492950       -2.6009624266
 H         -0.2016147990       -2.7587118140       -2.1680843146
 H         -2.6155277384       -3.6150285456       -0.4354413213
