  62
        -98.93860934
 C          0.9893777711        1.3699212714        0.5033628043
 C          1.5509376053        0.7498688923       -0.6402849741
 C          2.3825818820       -0.4449338382       -0.3910292480
 C          2.5897592044       -0.8672494646        0.8666002167
 C          3.3616729592       -2.0735490414        1.3393741904
 C          4.7107375880       -2.3604263574        0.6645026085
 C          5.4796586546       -1.1195719081        0.1871453956
 H          5.0280625971       -0.2159763533        0.5998510181
 H          6.5038012326       -1.1726394299        0.5610676291
 C          5.5445696192       -1.0058558893       -1.3381935472
 H          5.7510088277       -1.9944190367       -1.7543287421
 H          6.3816209710       -0.3570486689       -1.6071023290
 C          4.2959547790       -0.4337371415       -2.0093689170
 H          4.2104402692        0.6336102565       -1.7882135899
 H          4.4206247183       -0.5263809161       -3.0910476557
 C          2.9696498641       -1.0986546031       -1.6079653137
 H          2.2471875127       -0.9410524720       -2.4146805816
 H          3.0916302452       -2.1705450693       -1.4672458638
 H          4.5588785723       -3.0290992292       -0.1819232476
 H          5.3165274711       -2.9058724658        1.3900920019
 H          3.5163731240       -1.9095609414        2.4085633269
 H          2.7167792315       -2.9515659171        1.2362150198
 O          2.0561182671       -0.2220190609        1.9418996816
 C          1.2435252902        0.8879588344        1.7894365979
 O          0.8183827024        1.3562097902        2.8641398834
 H         -0.9417641434        0.6575905105       -1.2445468105
 C         -1.7090943926        1.1380915148       -0.6591044564
 C         -1.3810948226        2.1368271690        0.2457015840
 C         -2.4039084815        2.7491625122        0.9619474307
 C         -3.7209856608        2.3727367370        0.7735725842
 C         -4.0417394526        1.3615784049       -0.1143336031
 C         -3.0271409388        0.7392361684       -0.8312238035
 N         -3.3134624572       -0.3085685279       -1.7250597362
 S         -2.4063770817       -1.7111059025       -1.5982769298
 O         -1.1144867912       -1.5427669524       -2.2084551698
 O         -3.2510346499       -2.7352884227       -2.1764546304
 C         -2.2461267383       -1.9767032659        0.1581659817
 C         -3.3670397468       -2.3728414843        0.8617497892
 C         -3.2761125711       -2.5283211346        2.2348785414
 C         -2.0732939189       -2.2793225272        2.8787864101
 C         -0.9559438444       -1.8875949973        2.1582425044
 C         -1.0413413817       -1.7325696082        0.7834351250
 H         -0.1931317443       -1.4251181506        0.1906128500
 H         -0.0226539585       -1.6842268856        2.6599791191
 H         -2.0009393099       -2.3911537277        3.9490413830
 H         -4.1404555792       -2.8379111664        2.7998546050
 H         -4.2803930723       -2.5675638792        0.3234055728
 H         -4.2963986453       -0.5316857040       -1.7961282340
 H         -5.0670954203        1.0552413477       -0.2539545382
 H         -4.5044556693        2.8598060867        1.3333049018
 H         -2.1587365770        3.5192729587        1.6776873828
 C          0.0548479116        2.5656534544        0.4457746404
 H          0.1215974518        3.0439434411        1.4331386782
 C          0.4329059119        3.5923654557       -0.6053309727
 C          0.0601057583        5.0282218690       -0.3984599545
 C          1.4939343012        4.6037022029       -0.2972132277
 H          2.1781065436        4.8860381781       -1.0831777633
 H          1.9471531359        4.5679828604        0.6831292443
 H         -0.2453326437        5.6072138611       -1.2563280150
 H         -0.4527188533        5.2901336714        0.5143125915
 H          0.3970243620        3.2014654851       -1.6138525283
 O          1.3756963573        1.1424344658       -1.8231571141
