  62
        -98.93894597
 C         -1.9931786348       -1.7284300976       -0.1252264819
 C         -2.6539207089       -1.0944909437        0.9617705034
 C         -3.7494989428       -0.1789039326        0.6287311277
 C         -4.0987867166       -0.0247598178       -0.6608013764
 C         -5.1328300284        0.9413212014       -1.1605798301
 C         -4.4963114699        2.2931204811       -1.5141341938
 C         -3.5783854585        2.8507597631       -0.4254748997
 H         -2.7053338809        2.2004833206       -0.3249466324
 H         -3.2115537909        3.8187306816       -0.7748978464
 C         -4.2478443753        3.0209505684        0.9457800293
 H         -3.9681884939        3.9956587702        1.3510945802
 H         -5.3323688477        3.0162714895        0.8301935423
 C         -3.8441029709        1.9731436903        1.9849500824
 H         -2.7537878182        1.9057576703        2.0320787938
 H         -4.1945904075        2.3121960367        2.9634140765
 C         -4.4034793650        0.5627709498        1.7595491576
 H         -5.4845743037        0.6128126729        1.6159628997
 H         -4.2002240003       -0.0240467323        2.6600148172
 H         -3.9061358614        2.1706391075       -2.4256903201
 H         -5.2948290396        3.0084415993       -1.7199090449
 H         -5.5941626242        0.5217693652       -2.0560921788
 H         -5.8968458097        1.0754897524       -0.3972945716
 O         -3.5056900021       -0.7109932724       -1.6668254936
 C         -2.4285387626       -1.5689572601       -1.4403846723
 O         -2.0128837300       -2.1078336072       -2.4816722236
 O         -2.3266782529       -1.2896151983        2.1630280317
 C         -0.7840482151       -2.5628744684        0.2718573638
 C          0.1961080091       -1.6854067627        1.0139086581
 C          0.8743686926       -2.1591844920        2.1317872304
 C          1.7738502298       -1.3545602755        2.8066502159
 C          2.0286489162       -0.0674571868        2.3676303820
 C          1.3576652824        0.4154088961        1.2510604271
 C          0.4460028440       -0.3901698862        0.5845034733
 H         -0.0780036113        0.0085259202       -0.2727220820
 N          1.5906444240        1.7217655299        0.7677683954
 S          2.3304080297        1.8448632412       -0.7297011942
 O          2.5130719200        3.2609232951       -0.9553323140
 O          1.5623570548        1.1229208637       -1.7100770808
 C          3.9185912792        1.0678093452       -0.4865866813
 C          5.0118690433        1.8578456111       -0.1885236678
 C          6.2285230666        1.2484637088        0.0731161566
 C          6.3279214233       -0.1344038943        0.0432289579
 C          5.2202153273       -0.9137993529       -0.2534731564
 C          4.0013575246       -0.3101171181       -0.5202681790
 H          3.1222332351       -0.8854085204       -0.7611435583
 H          5.2963774308       -1.9888437614       -0.2784802429
 H          7.2741594556       -0.6086111475        0.2505035118
 H          7.0918761403        1.8524701184        0.3011654682
 H          4.8876837599        2.9287270589       -0.1801240219
 H          2.0773217054        2.3143497793        1.4267485687
 H          2.7289750053        0.5658697237        2.8913404513
 H          2.2827558538       -1.7319927913        3.6801368380
 H          0.6730652021       -3.1604438201        2.4830014099
 H         -1.1449924549       -3.3186488608        0.9905692522
 C         -0.1122683444       -3.3103469651       -0.8682389563
 C          0.8952875389       -2.6651823055       -1.7669040475
 C          1.3310922962       -3.7138257400       -0.7900116195
 H          1.6086858589       -4.6835883242       -1.1741423390
 H          1.9002862041       -3.3970066634        0.0710074689
 H          0.8535634432       -2.9093506416       -2.8175126650
 H          1.1488626191       -1.6306957423       -1.5868261369
 H         -0.7890609588       -4.0104106722       -1.3444325337
