  62
        -98.94413702
 C         -2.1981783974       -0.7827530765       -0.0286446445
 C         -2.9185017298       -0.1157960153        0.9898123800
 C         -3.6958233967        1.0563443438        0.5656673906
 C         -3.6492865726        1.4444816507       -0.7222125451
 C         -4.4273535729        2.5901630978       -1.3004301990
 C         -5.7855411387        2.1216573427       -1.8410642273
 C         -6.5761558924        1.2576171091       -0.8586472362
 H         -7.5280385077        1.0123073848       -1.3344356264
 H         -6.0432159427        0.3169214307       -0.7023616521
 C         -6.8402210816        1.9211327881        0.5002232277
 H         -7.8830828819        1.7515168662        0.7761484215
 H         -6.6979041098        2.9994631507        0.4203947268
 C         -5.9837584592        1.3810349412        1.6470679797
 H         -6.3980043307        1.7557643879        2.5868996470
 H         -6.0508768436        0.2904100469        1.6722684725
 C         -4.5006549686        1.7716084170        1.6142707253
 H         -4.4074889248        2.8539054522        1.5018403018
 H         -4.0607684933        1.4877044125        2.5751429153
 H         -5.6139653252        1.5384139623       -2.7486087912
 H         -6.3725481877        3.0021241865       -2.1084759733
 H         -4.5717038090        3.3489961231       -0.5337502740
 H         -3.8484802181        3.0195621712       -2.1198370081
 O         -2.9133114856        0.8019981629       -1.6644302931
 C         -2.1777815368       -0.3315705083       -1.3487829245
 O         -1.5600606822       -0.8273995932       -2.3085475461
 H          0.0544909227        0.1519226419        0.8759942950
 C          0.6601428809       -0.5989074229        0.3820753833
 C          0.0717805375       -1.8013409202        0.0088319441
 C          0.8656200925       -2.7606585457       -0.6056206588
 C          2.2030496928       -2.5073048242       -0.8577835379
 C          2.7774905706       -1.3007044177       -0.5046472187
 C          1.9972344681       -0.3391543431        0.1246144804
 N          2.5676769062        0.8960551645        0.4786994015
 S          4.0058201689        0.8920817080        1.3454009723
 O          4.1281721740       -0.2935233258        2.1616931691
 O          4.0279130131        2.1586403452        2.0443231734
 C          5.2655909109        0.9016582802        0.0875189079
 C          6.2386934621       -0.0783977404        0.0788630348
 C          7.2142468165       -0.0450147521       -0.9055135899
 C          7.1998319076        0.9627407248       -1.8575549640
 C          6.2170573925        1.9412505492       -1.8331192319
 C          5.2396758208        1.9143165620       -0.8512526901
 H          4.4610241896        2.6567395814       -0.7954438154
 H          6.2087712055        2.7233030677       -2.5752130144
 H          7.9588903296        0.9862433954       -2.6234204995
 H          7.9793224139       -0.8043412914       -0.9261063615
 H          6.2063675847       -0.8452930976        0.8362682555
 H          1.9099968306        1.5451741582        0.8854670074
 H          3.8160028119       -1.0971615271       -0.7078947578
 H          2.8056989576       -3.2600013443       -1.3425784200
 H          0.4366181374       -3.7066662623       -0.8919747708
 C         -1.3881217305       -2.0151287614        0.3274259076
 H         -1.4833065129       -2.1228638610        1.4189534664
 C         -1.9796905352       -3.2421407646       -0.3349837413
 C         -1.8666140276       -4.5859077711        0.3189051694
 C         -3.1882108987       -3.8811748944        0.2785916163
 H         -3.9589361534       -4.2618440986       -0.3747119941
 H         -3.5665835070       -3.4481442417        1.1933547765
 H         -1.3505994784       -4.6396077896        1.2657023087
 H         -1.7322735940       -5.4548040232       -0.3075076200
 H         -1.9356487787       -3.1907119034       -1.4171148414
 O         -2.9055986464       -0.4789914943        2.1982255492
