  62
        -98.93553970
 C         -1.7250249525       -1.0841846768        0.5760179916
 C         -2.0909834599        0.0384549903       -0.1999168976
 C         -3.5382317786        0.2660428575       -0.3876640868
 C         -4.4129475718       -0.5995919020        0.1555344549
 C         -5.9198922872       -0.5791544314        0.1034567153
 C         -6.5575367352       -0.2609695448       -1.2576963397
 C         -7.2331746721        1.1104408724       -1.3066970222
 H         -7.9958152767        1.0967614418       -2.0885206250
 H         -7.7438432392        1.2806022032       -0.3566183883
 C         -6.2988978554        2.2844550559       -1.5946598737
 H         -6.8727757685        3.2044983234       -1.4606431573
 H         -5.9839169267        2.2481791157       -2.6398455763
 C         -5.0471716735        2.3559358504       -0.7174815929
 H         -5.2887847106        2.1070956027        0.3152317711
 H         -4.6953046008        3.3899249285       -0.7213191046
 C         -3.8948349284        1.4705284595       -1.2154035427
 H         -4.0894104504        1.1481026237       -2.2426320510
 H         -2.9715425789        2.0576943978       -1.2568806188
 H         -7.3185919667       -1.0179271695       -1.4538664129
 H         -5.8103022530       -0.3434244346       -2.0454102797
 H         -6.2832165613        0.1246447389        0.8563824982
 H         -6.2274388156       -1.5738522286        0.4338941688
 O         -4.0105411923       -1.6708836249        0.8984076782
 C         -2.6750567546       -1.9379082670        1.1336736241
 O         -2.4649798479       -2.9428379842        1.8423708332
 O         -1.2511984958        0.8242195112       -0.7135265119
 C         -0.2603881391       -1.3967760204        0.8221890185
 C          0.4333936786       -0.2141846898        1.4523778176
 C         -0.1563502250        0.3998102138        2.5547337748
 C          0.4481920396        1.4775237704        3.1706994421
 C          1.6555494585        1.9655162932        2.7022254710
 C          2.2599563759        1.3534437455        1.6114326165
 C          1.6532537222        0.2640191358        0.9996894426
 H          2.1359492526       -0.1914559563        0.1516224060
 N          3.5081681511        1.7950485611        1.1522336273
 S          3.9008037436        1.7843565000       -0.4733972712
 O          5.0396857165        2.6753903195       -0.5623301168
 O          2.7758881936        2.1128749814       -1.3155835443
 C          4.4570541333        0.1236466217       -0.7933637033
 C          5.2872246623       -0.4914512305        0.1229307367
 C          5.7580160220       -1.7654900995       -0.1511564204
 C          5.4019802900       -2.3960979095       -1.3337240549
 C          4.5709287040       -1.7631707588       -2.2454552483
 C          4.0919485951       -0.4905286667       -1.9746653403
 H          3.4324799900        0.0334083080       -2.6487367390
 H          4.2937617530       -2.2541404906       -3.1651465129
 H          5.7708065717       -3.3871311194       -1.5461377600
 H          6.4019506693       -2.2624525624        0.5562957898
 H          5.5459524271        0.0301523382        1.0289621799
 H          3.8653628779        2.6185330059        1.6141668550
 H          2.1261987992        2.8129190504        3.1772723823
 H         -0.0256268927        1.9471319743        4.0197438257
 H         -1.1031287249        0.0217710557        2.9168231248
 H         -0.2492196410       -2.2226224215        1.5491200682
 C          0.3962758762       -1.8715359420       -0.4573897109
 C          1.5243898874       -2.8561614766       -0.3997782664
 C          0.1777602892       -3.2874228774       -0.8957084496
 H          0.0530473839       -3.4870249983       -1.9493501966
 H         -0.4303923779       -3.9126035692       -0.2579628711
 H          2.3293452822       -2.7614715261       -1.1126081365
 H          1.8368387261       -3.1977075037        0.5753091862
 H          0.4173752535       -1.1055249812       -1.2250570501
