  62
        -98.94703434
 C         -1.5196776595       -1.0652938435        0.0857223161
 C         -2.5359998054       -0.6119639004        0.9569358815
 C         -3.1138276148        0.7003563845        0.6426132689
 C         -2.6245753979        1.4017563145       -0.3968991999
 C         -3.1477901731        2.7325885831       -0.8526961962
 C         -4.2465783028        2.5680881330       -1.9121766748
 C         -5.3354204916        1.5687684044       -1.5212561264
 H         -6.0710051100        1.5572996219       -2.3282438038
 H         -4.8982727442        0.5691358263       -1.4687311386
 C         -6.0381107293        1.8836426840       -0.1933858723
 H         -7.1147349509        1.7617418614       -0.3288428703
 H         -5.8615298288        2.9241094654        0.0815399856
 C         -5.6306831715        0.9773385857        0.9696421450
 H         -6.3347424483        1.1391504023        1.7901841369
 H         -5.7162312092       -0.0689929779        0.6660258561
 C         -4.2197760786        1.2017561788        1.5287044438
 H         -4.0776603348        2.2597925232        1.7602238868
 H         -4.1368987556        0.6339936741        2.4605337315
 H         -3.7830485722        2.2255430345       -2.8400905237
 H         -4.6955636940        3.5456530509       -2.0968466221
 H         -3.5338517364        3.2777920164        0.0066894703
 H         -2.3165392407        3.2957984251       -1.2808905948
 O         -1.6197750870        0.9517670604       -1.1880937821
 C         -1.0317085636       -0.2803621962       -0.9601763172
 O         -0.1096839856       -0.5656653358       -1.7478759644
 H          0.3027927788       -0.5476585862        1.8285575319
 C          1.0395908272       -1.1644858747        1.3278018271
 C          0.6171378753       -2.2163088006        0.5233672189
 C          1.5816897714       -2.9939083713       -0.1040284850
 C          2.9272435844       -2.6987820373        0.0375079482
 C          3.3371352790       -1.6114511940        0.7874128377
 C          2.3801887453       -0.8444430693        1.4373785438
 N          2.7984836754        0.3322167624        2.1292080138
 S          2.5669860332        1.6833023574        1.1354357986
 O          3.0933510714        2.8102102596        1.8778189867
 O          1.1816479677        1.8097421849        0.7317141164
 C          3.6149934294        1.3093101910       -0.2482569930
 C          3.0863703556        0.6723228958       -1.3535056431
 C          3.9391099814        0.3361227076       -2.3942275009
 C          5.2898354252        0.6369762227       -2.3109951179
 C          5.8023345265        1.2774516397       -1.1923388867
 C          4.9586912061        1.6148747327       -0.1468569875
 H          5.3063071437        2.1127634278        0.7433694969
 H          6.8532177388        1.5100445719       -1.1308638221
 H          5.9465083785        0.3691667386       -3.1237175088
 H          3.5365278055       -0.1655461095       -3.2595097324
 H          2.0316066551        0.4422480581       -1.3890705609
 H          2.2723384463        0.4873734986        2.9801861084
 H          4.3777821623       -1.3449369492        0.8736709828
 H          3.6629711835       -3.3081439954       -0.4637348591
 H          1.2770637134       -3.8231083948       -0.7214158862
 C         -0.8671344128       -2.4123917205        0.3453471856
 H         -1.2937123072       -2.7695243549        1.2947299857
 C         -1.2217353302       -3.3932822989       -0.7524904136
 C         -1.2856559695       -4.8628911383       -0.4644279231
 C         -2.5473512650       -4.0897186963       -0.6994410825
 H         -3.0861481023       -4.2442088866       -1.6221814989
 H         -3.1844506481       -3.8757925224        0.1464604955
 H         -1.0702741730       -5.1848472683        0.5430745001
 H         -0.9606506982       -5.5524251274       -1.2286827489
 H         -0.8625829115       -3.0738117555       -1.7245125510
 O         -2.9346203472       -1.2719261367        1.9570409215
