  62
        -98.93898473
 C          2.3728042362        0.5878042828        0.1382412694
 C          2.7287345642       -0.7825638690        0.0197346637
 C          4.0484968299       -1.0697069119       -0.5504298695
 C          4.8337089929       -0.0538528749       -0.9513603723
 C          6.1961406389       -0.1769129368       -1.5776504773
 C          7.3373718934       -0.3292757756       -0.5627920531
 C          7.4097085192       -1.6884719192        0.1340074361
 H          7.4025603393       -2.4805588624       -0.6153336977
 H          8.3718570988       -1.7343240496        0.6479779342
 C          6.2924280546       -1.9357465432        1.1573108180
 H          5.8221051532       -0.9856457281        1.4211824012
 H          6.7222471648       -2.3448090295        2.0744784494
 C          5.2096277630       -2.9098034704        0.6923325767
 H          5.6447162405       -3.9016788965        0.5507812363
 H          4.4538903886       -2.9829639215        1.4787650479
 C          4.5020963809       -2.4973357280       -0.6053346053
 H          5.1609947449       -2.6539489946       -1.4592357816
 H          3.6148284086       -3.1235824152       -0.7269125360
 H          8.2748610396       -0.1703490171       -1.1005547103
 H          7.2458135735        0.4601848236        0.1866487374
 H          6.3605255535        0.7412153779       -2.1455754340
 H          6.2064354962       -1.0204259290       -2.2683851101
 O          4.4514577568        1.2436933984       -0.8434389790
 C          3.2323241911        1.6025091159       -0.2847683867
 O          3.0605703257        2.8368236171       -0.2392414593
 O          1.9743960764       -1.7261977496        0.3810261105
 C          1.0202360440        0.8823639184        0.7606301218
 C         -0.0486504603        1.1858572711       -0.2626748249
 C          0.0793269628        2.2338837193       -1.1684073717
 C         -0.9422946378        2.5192040319       -2.0556082440
 C         -2.1169203985        1.7878594684       -2.0406337629
 C         -2.2531538072        0.7374429105       -1.1411509151
 C         -1.2153388919        0.4356812003       -0.2704661528
 H         -1.3329486139       -0.3931367158        0.4128638773
 N         -3.4263404705       -0.0317020501       -1.1007269276
 S         -3.9688004807       -0.5610677936        0.4093874257
 O         -3.7707708556        0.4758978409        1.3960687989
 O         -3.3668012218       -1.8388577143        0.6976580424
 C         -5.7081505617       -0.7723812283        0.0775288645
 C         -6.5748886662        0.2686162822        0.3531790639
 C         -7.9216028836        0.1139043582        0.0645713889
 C         -8.3757551740       -1.0712739781       -0.4944919751
 C         -7.4939474665       -2.1072419474       -0.7648489914
 C         -6.1460131626       -1.9596024525       -0.4782265976
 H         -5.4251634883       -2.7392481991       -0.6623335102
 H         -7.8513391068       -3.0281020634       -1.1966227564
 H         -9.4242286004       -1.1895648067       -0.7179036515
 H         -8.6099775369        0.9160165461        0.2767502686
 H         -6.1779993964        1.1674228686        0.7972446212
 H         -4.1743070325        0.3568499257       -1.6585677334
 H         -2.9198279972        2.0247086141       -2.7222246849
 H         -0.8288849588        3.3329625010       -2.7560339320
 H          0.9838480363        2.8220279624       -1.1663638739
 H          0.7284135092       -0.0496218755        1.2653336523
 C          1.0509063273        1.9933283485        1.7951784496
 C         -0.1023910617        2.1256346756        2.7427247643
 C          1.2284910943        1.6502544576        3.2419925044
 H          1.8142773540        2.3134518805        3.8607632564
 H          1.3326449108        0.6059664519        3.4994512545
 H         -0.4291307781        3.1169000199        3.0176399329
 H         -0.9081948041        1.4102855651        2.6576317521
 H          1.5133915685        2.9024794474        1.4334577914
