  62
        -98.94247718
 C         -1.4874591843       -1.2382338552        0.7234710848
 C         -1.9712590470       -0.9307186039       -0.5728453007
 C         -2.6978763415        0.3399208152       -0.6966026031
 C         -2.8518397241        1.1365063432        0.3753189669
 C         -3.5893910703        2.4474397070        0.4039695026
 C         -2.7460254708        3.6440419741       -0.0557123038
 C         -2.4517309696        3.7032363101       -1.5548596684
 H         -3.3841153344        3.6134485242       -2.1131671930
 H         -2.0439290727        4.6944025812       -1.7613479729
 C         -1.4515769200        2.6465289230       -2.0450970800
 H         -0.9023084602        2.2378748364       -1.1932493681
 H         -0.7160311993        3.1163126172       -2.7013484846
 C         -2.0834338469        1.4948960493       -2.8273533580
 H         -1.2963314896        0.7811757862       -3.0845326005
 H         -2.5125764410        1.8740708119       -3.7576488013
 C         -3.1750501527        0.7372372853       -2.0605854718
 H         -4.0773526863        1.3440781207       -1.9890960056
 H         -3.4092361521       -0.1766877164       -2.6120314810
 H         -3.2878807282        4.5505971544        0.2230506182
 H         -1.8039137597        3.6292073429        0.4941625527
 H         -4.4893237548        2.3739235614       -0.2073504519
 H         -3.8871183684        2.6146786898        1.4413342644
 O         -2.3484052976        0.8189179828        1.5982151515
 C         -1.6312869635       -0.3509419360        1.7924917185
 O         -1.1769890963       -0.4840460017        2.9470310303
 O         -1.8165925466       -1.6668246075       -1.5801396511
 C         -0.6553663233       -2.4835342394        0.9794530984
 C          0.4101420820       -2.5788108108       -0.0853341179
 C          0.5740111238       -3.6604411136       -0.9389485424
 C          1.5700559571       -3.6426659146       -1.9002400137
 C          2.4301168935       -2.5659848989       -2.0151797330
 C          2.2767307555       -1.4797058152       -1.1608303506
 C          1.2684760578       -1.4937327708       -0.2135414244
 H          1.1411223877       -0.6430162492        0.4405163945
 N          3.1181028985       -0.3585901336       -1.2421300513
 S          3.6659592464        0.3529050361        0.1719372809
 O          4.8997935194        1.0074646848       -0.2099979703
 O          3.7636749201       -0.6113155342        1.2425799626
 C          2.4726431772        1.6125759752        0.5726183855
 C          1.7832456598        1.5506643445        1.7671350680
 C          0.9179621335        2.5811713526        2.0990934255
 C          0.7669595118        3.6568364728        1.2379817711
 C          1.4545552586        3.6981909791        0.0338313267
 C          2.3164214851        2.6680501267       -0.3046230829
 H          2.8805927969        2.6712321640       -1.2222546860
 H          1.3229572358        4.5320783718       -0.6364580944
 H          0.1162729864        4.4723757277        1.5135400869
 H          0.3667556471        2.5307623749        3.0251032848
 H          1.9293650463        0.7031698201        2.4195058408
 H          3.8529472196       -0.4279861605       -1.9311659930
 H          3.2086779865       -2.5586345790       -2.7630950551
 H          1.6809545995       -4.4834574356       -2.5683746896
 H         -0.0928828024       -4.5041617358       -0.8707185234
 H         -0.1438700644       -2.2914862544        1.9381690286
 C         -1.4530649413       -3.7637101491        1.1692843653
 C         -2.8523160793       -3.7231376992        1.7060521267
 C         -2.6050962160       -4.1396750253        0.2888293650
 H         -2.7325725165       -5.1820072946        0.0347025986
 H         -2.8695216276       -3.4602016777       -0.5049352869
 H         -3.1494728543       -4.4743004204        2.4225415396
 H         -3.2886003255       -2.7510009911        1.8857409614
 H         -0.8273146513       -4.5768526279        1.5255695415
