  62
        -98.93717224
 C         -1.3140976626       -1.2650872976        0.2372021874
 C         -2.3064013898       -0.8951178208        1.1759491379
 C         -2.9882807101        0.3910386972        0.9508898613
 C         -2.6086207981        1.1665052632       -0.0815334373
 C         -3.0804156844        2.5402446043       -0.5096255934
 C         -4.4256277926        3.0877173788       -0.0369623019
 C         -5.6473190626        2.3103549186       -0.5232829516
 H         -6.5349607290        2.7580913716       -0.0706509725
 H         -5.7308254553        2.4294400133       -1.6064287143
 C         -5.6396721065        0.8135622934       -0.2214179150
 H         -6.5838888942        0.3956495727       -0.5811647312
 H         -4.8402166966        0.3294940737       -0.7862718232
 C         -5.5001002382        0.4427960961        1.2546183058
 H         -5.6934988699       -0.6298652047        1.3421503031
 H         -6.2593931444        0.9662447602        1.8387077728
 C         -4.1200220876        0.7153835982        1.8819262501
 H         -4.0413589920        1.7396098181        2.2396545203
 H         -4.0058320878        0.0568717803        2.7480649592
 H         -4.4413151730        3.1718295767        1.0458378846
 H         -4.5024752766        4.1039032623       -0.4336398945
 H         -2.2993183481        3.2396412636       -0.1913998418
 H         -3.0637151586        2.5301145473       -1.6035098416
 O         -1.6036741415        0.7965492182       -0.9252802052
 C         -0.9406297358       -0.4169570306       -0.8065255062
 O         -0.0659247314       -0.5989995981       -1.6696491251
 H          0.8507926559       -0.8098659626        1.7864009087
 C          1.4764693076       -1.3657754553        1.0978943733
 C          0.8998886019       -2.3574410323        0.3125239996
 C          1.7126501874       -3.0567506578       -0.5684258312
 C          3.0617013608       -2.7594293399       -0.6644790852
 C          3.6274104516       -1.7621036402        0.1074063214
 C          2.8219983646       -1.0567472625        0.9926245043
 N          3.3809369951       -0.0211873156        1.7715987770
 S          4.1057043559        1.2357121960        0.9310004844
 O          5.3599524650        0.7752746342        0.3911457400
 O          4.1839495179        2.3256663539        1.8785549988
 C          2.9812352668        1.6442865558       -0.3893940633
 C          3.1684579518        1.0956128657       -1.6412732862
 C          2.2578282192        1.3890271086       -2.6424705886
 C          1.1828688686        2.2210767664       -2.3768522889
 C          1.0098705113        2.7655080505       -1.1145466726
 C          1.9119349491        2.4701851558       -0.1065741462
 H          1.8124024403        2.8768124471        0.8879382301
 H          0.1687757011        3.4095827097       -0.9121988118
 H          0.4689550875        2.4391036553       -3.1550653499
 H          2.3814401829        0.9581588490       -3.6225733845
 H          4.0186692793        0.4554470847       -1.8099858019
 H          2.7298894414        0.3605723267        2.4434010176
 H          4.6717113139       -1.5056060837        0.0305600951
 H          3.6801645161       -3.3078257814       -1.3587117688
 H          1.2875356210       -3.8181870312       -1.2010327564
 C         -0.5853537220       -2.5798283484        0.4513862274
 H         -0.7930268595       -2.8399740625        1.5033464997
 C         -1.1092689337       -3.7339194349       -0.3895476754
 C         -2.5221240740       -3.7450019040       -0.8896076907
 C         -1.3873149978       -3.5916353974       -1.8549845474
 H         -1.1533722671       -4.4230362903       -2.5038475345
 H         -1.2159426489       -2.6255452575       -2.3025146329
 H         -3.0646563483       -4.6784637795       -0.8727593907
 H         -3.1354684662       -2.8810961569       -0.6781693677
 H         -0.7126616358       -4.6890658964       -0.0589935158
 O         -2.6032139901       -1.6035207121        2.1761665792
