  62
        -98.93304030
 C         -2.1622662800       -1.2170134195        0.2278510709
 C         -3.0177806297       -0.4555278298        1.0618900315
 C         -4.0838204898        0.3109347806        0.3959271521
 C         -4.1703868901        0.2862020413       -0.9450044679
 C         -5.1942248402        0.9464102919       -1.8342690374
 C         -5.6079709400        2.3841068617       -1.4932117766
 C         -4.4939752398        3.2534562213       -0.8917905563
 H         -3.5297645399        2.7518022213       -0.9945867168
 H         -4.4334016798        4.1899748816       -1.4493616359
 C         -4.7348238295        3.5988394206        0.5798415939
 H         -4.1410259593        4.4798216304        0.8359405842
 H         -5.7861298994        3.8646085506        0.7094159142
 C         -4.3703873194        2.5025489201        1.5805174132
 H         -3.2833839494        2.3878345399        1.6260909630
 H         -4.6958940391        2.8297241696        2.5709987135
 C         -4.9744734395        1.1172727303        1.2970229527
 H         -5.9818326796        1.2017455606        0.8967404029
 H         -5.0194619694        0.5721750598        2.2438644524
 H         -5.9632501701        2.8378703723       -2.4198473063
 H         -6.4539108799        2.3680189915       -0.8076154864
 H         -4.7591625004        0.9184424924       -2.8362065175
 H         -6.0857082703        0.3127486720       -1.8525772775
 O         -3.2913468103       -0.4157009084       -1.7135801685
 C         -2.2660436303       -1.1725631587       -1.1622337891
 O         -1.5412339905       -1.7287590184       -2.0069678895
 O         -2.8994807995       -0.4208894105        2.3163062414
 C         -1.0596582499       -2.0198286999        0.8925702103
 C          0.2640105200       -1.7623355797        0.2160774801
 C          1.1141898498       -2.7661135295       -0.2282153806
 C          2.3256074697       -2.4524928293       -0.8207272707
 C          2.7174371698       -1.1365300293       -0.9812205101
 C          1.8744538400       -0.1246252794       -0.5413155094
 C          0.6678970001       -0.4411965396        0.0573954007
 H          0.0189269402        0.3551904203        0.4050440212
 N          2.2890555301        1.2261313706       -0.6900786088
 S          3.3072280604        1.7341765699        0.5562758913
 O          2.8480697106        1.2438619393        1.8385767511
 O          3.3991508805        3.1717380299        0.4242900420
 C          4.8632173702        0.9816320799        0.1429241106
 C          5.2786752402       -0.1378490004        0.8365446499
 C          6.4808497601       -0.7325020204        0.4871742594
 C          7.2404985500       -0.1998459699       -0.5434475905
 C          6.8096715699        0.9268764305       -1.2282473698
 C          5.6081979300        1.5260163304       -0.8848684793
 H          5.2363440200        2.4049999507       -1.3847095788
 H          7.4044309798        1.3386157108       -2.0276483798
 H          8.1750881099       -0.6654049099       -0.8139083709
 H          6.8175193801       -1.6083276307        1.0179818989
 H          4.6532386004       -0.5162383308        1.6289568699
 H          1.5071230501        1.8662805107       -0.7311911083
 H          3.6511011697       -0.8848705491       -1.4570425001
 H          2.9699570196       -3.2453021292       -1.1680146112
 H          0.8206880597       -3.7979383495       -0.1280100210
 H         -0.9950452497       -1.5983334204        1.9110659105
 C         -1.3780325600       -3.4987134199        1.0591406296
 C         -2.7924415501       -3.9945362398        1.0564420096
 C         -1.8757254603       -4.3407080093       -0.0762463708
 H         -1.5215339604       -5.3582032093       -0.1536240814
 H         -2.0244873505       -3.8544900388       -1.0273851105
 H         -3.0637660900       -4.7692282002        1.7579120893
 H         -3.5772734000       -3.2736899897        0.8777067701
 H         -0.7076248099       -3.9795709704        1.7648692492
