  62
        -98.94422531
 C         -1.9759588818       -1.3328521401        0.0363112018
 C         -2.2789088144       -0.3750562569       -0.9615632241
 C         -3.6714471196        0.0986836606       -0.9950259968
 C         -4.5629862636       -0.3918027276       -0.1157609772
 C         -5.9938296966        0.0463032519       -0.0050910307
 C         -6.1454289533        1.1981047935        0.9983852615
 C         -5.1516340429        2.3398625209        0.7838147481
 H         -5.3733801556        3.1080598880        1.5278640674
 H         -4.1412529854        1.9780382070        0.9891406949
 C         -5.1914167567        2.9612082630       -0.6193422542
 H         -6.1282414568        2.7009617901       -1.1134560105
 H         -5.1681277692        4.0486184758       -0.5211918844
 C         -4.0180790804        2.5706204064       -1.5200166040
 H         -3.0771335222        2.7436851039       -0.9909699962
 H         -4.0274448496        3.2281544244       -2.3935401029
 C         -4.0245734293        1.1254530423       -2.0342507571
 H         -4.9925593086        0.9001849273       -2.4861747797
 H         -3.2566129470        1.0456303236       -2.8091158517
 H         -7.1645408580        1.5830960455        0.9307271292
 H         -5.9979288566        0.8017933692        2.0056739442
 H         -6.3517024655        0.3549937741       -0.9853233987
 H         -6.5876846680       -0.8026526096        0.3377964183
 O         -4.2410311017       -1.3226425607        0.8173498192
 C         -2.9477889070       -1.8004023300        0.9273923036
 O         -2.7883545496       -2.6354314353        1.8396331615
 H          0.7048276503        0.2157460697       -0.9061693968
 C          0.8921110952        0.1499192308        0.1544382446
 C          0.3003726736       -0.8666330460        0.8903445043
 C          0.5230500802       -0.9103881896        2.2623977399
 C          1.3187563384        0.0382308436        2.8803350640
 C          1.9065226166        1.0512481268        2.1433136401
 C          1.6812035613        1.1079190974        0.7744388424
 N          2.2816343884        2.1353907454        0.0138429755
 S          3.9572923689        2.1174873189       -0.0151547724
 O          4.4544681182        2.5388585611        1.2699770384
 O          4.3405511951        2.9301668478       -1.1470788415
 C          4.3700150495        0.4066960871       -0.3019101489
 C          4.3526609729       -0.0647663998       -1.5993417864
 C          4.5866210813       -1.4109480187       -1.8264444848
 C          4.8186366204       -2.2609477832       -0.7559198966
 C          4.8297207748       -1.7721450405        0.5410146210
 C          4.6029166083       -0.4254027472        0.7743463531
 H          4.6079843956       -0.0058237557        1.7666725810
 H          5.0104589616       -2.4355774880        1.3712345661
 H          4.9924348918       -3.3105179582       -0.9337223606
 H          4.5826285072       -1.7927756911       -2.8349453682
 H          4.1708267337        0.6292838848       -2.4043590104
 H          1.9266152660        2.1738386381       -0.9316958719
 H          2.5376624049        1.7943660065        2.6036912914
 H          1.4824922308       -0.0105552001        3.9462090860
 H          0.0548365018       -1.6921860029        2.8435055304
 C         -0.5776915215       -1.9015581969        0.2292634972
 H         -0.6946226699       -2.7371816747        0.9314561501
 C          0.0281733793       -2.4319924991       -1.0553411569
 C          1.2580148255       -3.2838966162       -0.9743040303
 C         -0.0550982937       -3.8967035108       -1.3563581215
 H         -0.2044604349       -4.2032156390       -2.3807963851
 H         -0.5543485134       -4.5283861601       -0.6360869481
 H          1.6514547403       -3.4959509399        0.0081824974
 H          2.0145453309       -3.1685947526       -1.7346299447
 H         -0.0602312001       -1.7515199702       -1.8914900334
 O         -1.4476800682        0.0727410261       -1.7959185955
