  62
        -98.93629453
 C         -1.7733657613       -0.1118608981        0.3526678020
 C         -2.8086732105       -1.0210069225        0.6995235753
 C         -4.1488923054       -0.4385445182        0.8819789052
 C         -4.3022881929        0.8953543593        0.8304596280
 C         -5.6120385633        1.6178900403        0.9502835476
 C         -6.2656455989        1.8174704592       -0.4243261085
 C         -6.3245575874        0.5459945026       -1.2709787371
 H         -6.8317384344        0.8001713966       -2.2042352494
 H         -5.3072151456        0.2439157793       -1.5294594608
 C         -7.0467658230       -0.6308548158       -0.6001783102
 H         -7.6605523994       -0.2672334515        0.2246630335
 H         -7.7202317389       -1.0891959127       -1.3275101156
 C         -6.1195915964       -1.7365364842       -0.0919057378
 H         -5.4400964474       -2.0408300345       -0.8918949770
 H         -6.7336769498       -2.6042286028        0.1634327217
 C         -5.2832616837       -1.3886117738        1.1458058431
 H         -5.9344547110       -1.0012081657        1.9320720250
 H         -4.8203476452       -2.3118147954        1.5066051714
 H         -7.2753769001        2.2035360855       -0.2730775264
 H         -5.6933741535        2.5688048696       -0.9735305294
 H         -6.2752623368        1.0502920790        1.6004939154
 H         -5.4253725843        2.5944459950        1.4003240885
 O         -3.2627166336        1.7438560240        0.6310631503
 C         -1.9774684872        1.2696008774        0.4035264940
 O         -1.1315604432        2.1766761048        0.2825375512
 H          1.9131577207        0.5977862608        0.9015856547
 C          1.6643717120        0.8287076607       -0.1232341072
 C          0.4872010638        0.3493834223       -0.6749848766
 C          0.1736477787        0.6932068721       -1.9862934396
 C          1.0080560187        1.5206144163       -2.7109780921
 C          2.1843828578        1.9966569279       -2.1579280503
 C          2.5095946453        1.6544505089       -0.8515120268
 N          3.6896162542        2.1254521294       -0.2638207438
 S          4.4757695381        1.2728008293        0.9280573646
 O          3.7781709307        1.3870432825        2.1851264649
 O          5.8254797797        1.7950468005        0.9080202420
 C          4.4855065733       -0.4302087666        0.3923323525
 C          4.9885160216       -0.7272968355       -0.8590661920
 C          5.0130911957       -2.0485127221       -1.2757617207
 C          4.5401107323       -3.0469271743       -0.4379037699
 C          4.0425538269       -2.7338773691        0.8175068277
 C          4.0132968021       -1.4135220467        1.2378881221
 H          3.6292566772       -1.1261711824        2.2041481208
 H          3.6716388885       -3.5108214719        1.4666196363
 H          4.5550425040       -4.0744618132       -0.7643303549
 H          5.3987577523       -2.2953354539       -2.2516162528
 H          5.3574026900        0.0692637216       -1.4840939500
 H          4.3158082782        2.6297563267       -0.8720350068
 H          2.8368108808        2.6422275017       -2.7257008408
 H          0.7470536517        1.7946416647       -3.7221319033
 H         -0.7435658707        0.3254299910       -2.4224523479
 C         -0.3643167874       -0.6303047555        0.0915034385
 H          0.1186665680       -0.8096389006        1.0659765134
 C         -0.3655753936       -1.9403053798       -0.6921378175
 C          0.9416307595       -2.5194063515       -1.1511565427
 C          0.1532162244       -3.2024274011       -0.0791479130
 H         -0.3582728091       -4.1247079438       -0.3061154231
 H          0.5137947103       -3.1473487163        0.9366641951
 H          1.8445732803       -1.9991754217       -0.8690241749
 H          0.9835282795       -2.9731501361       -2.1291205637
 H         -1.2071028453       -2.0368167359       -1.3675356610
 O         -2.6391496222       -2.2557981110        0.8587515685
