  62
        -98.93809646
 C         -0.4416933874       -2.0795412064       -0.7470645875
 C         -0.9268394459       -0.8752821521       -1.3152139386
 C         -2.3380838155       -0.5532674976       -1.0318725500
 C         -3.0604894854       -1.3668300945       -0.2432990335
 C         -4.4551869444       -1.0977351838        0.2455362867
 C         -4.4096247614       -0.0608868513        1.3868698093
 C         -5.1005496732        1.2629540772        1.0609116851
 H         -6.1828238584        1.1214849409        1.1045948072
 H         -4.8263728738        1.9733801619        1.8440434396
 C         -4.7574892766        1.8687868898       -0.3028736125
 H         -5.0921059258        2.9082903384       -0.2825929075
 H         -5.3356668325        1.3697552642       -1.0823489575
 C         -3.2742325535        1.8370080649       -0.6948200005
 H         -2.6415334092        1.7856727791        0.1938470893
 H         -3.0440400124        2.7773183718       -1.2025031294
 C         -2.8899630996        0.6974336308       -1.6586938391
 H         -3.7509611612        0.4428420026       -2.2834204082
 H         -2.0931563581        1.0520494549       -2.3194846436
 H         -3.3629500639        0.1301970541        1.6383441576
 H         -4.8747693711       -0.4803853682        2.2806298470
 H         -4.8636912344       -2.0423701008        0.6054383727
 H         -5.0736599150       -0.7392868791       -0.5743864189
 O         -2.5607048235       -2.5144815250        0.2850390920
 C         -1.2476367218       -2.8875978814        0.0576045129
 O         -0.9175733109       -3.9567130491        0.6117851469
 O         -0.2411727953       -0.0959270385       -2.0237377929
 C          1.0052438654       -2.5398203939       -0.8540780844
 C          1.7509565390       -2.0472057960        0.3601302310
 C          2.5397594485       -2.8902279840        1.1322220643
 C          3.1597849265       -2.4134808453        2.2746586651
 C          3.0007680449       -1.0973329108        2.6692422283
 C          2.2184953007       -0.2438960704        1.8970653676
 C          1.6150985214       -0.7209060888        0.7444680713
 H          0.9978966889       -0.0625438506        0.1558502476
 N          2.0589735539        1.1006426042        2.2436459113
 S          0.8463214098        2.0490080637        1.6007183894
 O          0.9012438398        3.2617675387        2.3929590212
 O         -0.4329735498        1.3754210813        1.5992491008
 C          1.3994746724        2.4118255094       -0.0516641227
 C          2.7528475782        2.4273625665       -0.3252970794
 C          3.1711369700        2.7349013706       -1.6094093201
 C          2.2366134074        3.0275586597       -2.5906219567
 C          0.8833255478        3.0189910488       -2.2963114605
 C          0.4583024986        2.7086259740       -1.0149885280
 H         -0.5856761111        2.6732184340       -0.7520910029
 H          0.1551883708        3.2403794951       -3.0599138365
 H          2.5646947162        3.2604339652       -3.5915061667
 H          4.2240240483        2.7391635256       -1.8420103572
 H          3.4552994613        2.1891660056        0.4563000205
 H          2.3622123424        1.3778859416        3.1637163943
 H          3.4694940680       -0.7323226297        3.5700658118
 H          3.7639404318       -3.0781717601        2.8733040056
 H          2.6432164698       -3.9272058452        0.8488224497
 H          0.9721942282       -3.6400227132       -0.7990275783
 C          1.6817373806       -2.1686558731       -2.1642932551
 C          2.6923152110       -1.0723870122       -2.2897151674
 C          3.1292381898       -2.5020757347       -2.3766901846
 H          3.4331764478       -2.8959212063       -3.3345990986
 H          3.6725379144       -2.9095447978       -1.5373755765
 H          2.6676140620       -0.4748140183       -3.1876066948
 H          2.9480641956       -0.5095217432       -1.4057617153
 H          1.0195588126       -2.3093008961       -3.0118361359
