  62
        -98.94258383
 C         -1.4586380099       -0.9107540198       -0.4825850013
 C         -2.8082078300       -1.3074743395       -0.6625137617
 C         -3.8071153499       -0.2332776695       -0.6362338701
 C         -3.4134770498        1.0370810502       -0.4347877584
 C         -4.3072732698        2.2473776102       -0.4084335767
 C         -4.9796007497        2.4985913584        0.9482228637
 C         -6.1014979497        1.5241350679        1.3091641625
 H         -6.6260411496        1.9435554368        2.1700679631
 H         -6.8160237798        1.4729675091        0.4869425325
 C         -5.6216882297        0.1101108174        1.6655087105
 H         -4.5521434397        0.1334008771        1.8870694504
 H         -6.1286391097       -0.2291649338        2.5717204801
 C         -5.8796756699       -0.9385788611        0.5835223091
 H         -6.9557126999       -1.0680612408        0.4471529290
 H         -5.4670240399       -1.8918182216        0.9239240477
 C         -5.2511145200       -0.6100249392       -0.7769196905
 H         -5.8075431600        0.1902019815       -1.2648179994
 H         -5.3028133000       -1.5045722384       -1.4027166118
 H         -5.3989701596        3.5070099084        0.9220592152
 H         -4.2139494196        2.4767613173        1.7270414936
 H         -3.6744385698        3.1059398405       -0.6426165755
 H         -5.0702019399        2.1563643213       -1.1822238767
 O         -2.1126158498        1.3755383699       -0.2415920181
 C         -1.1029743299        0.4169836998       -0.2356029995
 O          0.0258301902        0.8818964295       -0.0033913889
 O         -3.1617736400       -2.5043665592       -0.8366923433
 C         -0.3968917900       -1.9956345698       -0.5071964228
 C          0.5637219401       -1.8091696314        0.6385434073
 C          0.0934872902       -1.9710835532        1.9393817371
 C          0.9300295503       -1.7815415847        3.0216936373
 C          2.2524384503       -1.4220484245        2.8298309577
 C          2.7323960202       -1.2621726528        1.5355379779
 C          1.8918477701       -1.4628116312        0.4493811577
 H          2.2867230800       -1.3259798499       -0.5426186222
 N          4.0731793602       -0.9210872225        1.3171187583
 S          4.5672674601       -0.0600839607       -0.0209777606
 O          4.5210329300       -0.8971225791       -1.1946918218
 O          5.8836989202        0.4204326487        0.3478577699
 C          3.4687509502        1.3313137396       -0.2047883386
 C          2.9443688201        1.6148922413       -1.4472165582
 C          2.1322581001        2.7263963616       -1.5953230666
 C          1.8591162003        3.5305520301       -0.5018330554
 C          2.3953624003        3.2331914083        0.7404231741
 C          3.2104320303        2.1250522281        0.8935279025
 H          3.6418470404        1.8730190268        1.8489392321
 H          2.1731674104        3.8577849072        1.5910206350
 H          1.2167152003        4.3896784503       -0.6167531042
 H          1.7072542201        2.9539733429       -2.5605392262
 H          3.1729110300        0.9574234725       -2.2708933391
 H          4.5980552903       -0.6743967337        2.1424472485
 H          2.9078729804       -1.2670878157        3.6732462279
 H          0.5503594904       -1.9080654861        4.0244797872
 H         -0.9435819498       -2.2395520634        2.0897424569
 H         -0.9547746800       -2.9319295300       -0.3371431041
 C          0.3018147399       -2.1461661280       -1.8499849631
 C         -0.4237996902       -1.8765289562       -3.1330763827
 C          0.6838628799       -0.9688453669       -2.6937849415
 H          1.6243437698       -1.0104701662       -3.2245824817
 H          0.4329778699        0.0136208727       -2.3250436802
 H         -0.2500205003       -2.5363395351       -3.9697958036
 H         -1.4388201502       -1.5129777362       -3.0662823521
 H          0.9901841999       -2.9865308680       -1.8549226043
