  62
        -98.93813187
 C          1.9844354341        1.3929980711        0.3030366099
 C          2.6259764614        0.7156269342       -0.7607978968
 C          3.7732441374       -0.1323489537       -0.3920933449
 C          4.1466583450       -0.2187986069        0.8960610830
 C          5.3018106900       -0.9889684794        1.4849257954
 C          5.5222376742       -2.4235273703        0.9828690562
 C          4.2469049590       -3.1741898547        0.5718076566
 H          4.2338295558       -4.1478404761        1.0654915482
 H          3.3636069808       -2.6282392994        0.9083147427
 C          4.1542799536       -3.4133749336       -0.9374476134
 H          5.1349669292       -3.7273754843       -1.3015727691
 H          3.4592118088       -4.2366015884       -1.1203047393
 C          3.6712261387       -2.2228263499       -1.7655680955
 H          3.7713995138       -2.4858846216       -2.8213515665
 H          2.6070550652       -2.0490081192       -1.5813153584
 C          4.4102202566       -0.8979771013       -1.5154624814
 H          5.4703874360       -1.0647606186       -1.3408534082
 H          4.2953503092       -0.2774122256       -2.4082184909
 H          6.0195530639       -2.9669436499        1.7879938320
 H          6.2117392515       -2.4125073704        0.1398897240
 H          6.2152625174       -0.4095355353        1.3236116709
 H          5.1150248886       -1.0023855113        2.5613836955
 O          3.4943028101        0.4490571619        1.8900260542
 C          2.3979169844        1.2525369115        1.6256926886
 O          1.8820652801        1.7707282608        2.6377385145
 H         -0.0628175003       -0.1345133393        0.7566778472
 C         -0.6175345468        0.2209753670       -0.1036517789
 C         -0.3102010205        1.4672257986       -0.6367467869
 C         -1.0437926010        1.9181452969       -1.7258626503
 C         -2.0304404764        1.1235141902       -2.2851403136
 C         -2.3134314222       -0.1271324983       -1.7693408821
 C         -1.6007501694       -0.5785295442       -0.6649903917
 N         -1.8920922321       -1.8400909990       -0.1193445230
 S         -3.5008468232       -2.2580943105        0.0748635014
 O         -3.5188260767       -3.1880154092        1.1823736989
 O         -4.0263572508       -2.7566663247       -1.1716231166
 C         -4.3326055426       -0.7419517545        0.5147200535
 C         -5.3435062875       -0.2527363578       -0.2871033184
 C         -5.9557508260        0.9411312875        0.0596138775
 C         -5.5450750825        1.6236463331        1.1938943131
 C         -4.5299562876        1.1173941534        1.9914808704
 C         -3.9164026706       -0.0770072189        1.6511694319
 H         -3.1270516840       -0.4976992575        2.2538865072
 H         -4.2105129650        1.6490024374        2.8736031638
 H         -6.0179578007        2.5555881773        1.4604553075
 H         -6.7466855763        1.3361844397       -0.5571544874
 H         -5.6283963201       -0.8140400902       -1.1620017360
 H         -1.3499484820       -2.0706450028        0.6997632327
 H         -3.0630335474       -0.7659695719       -2.2073112687
 H         -2.5834170964        1.4817846978       -3.1397391294
 H         -0.8361579893        2.8884010418       -2.1454893746
 C          0.7823284788        2.2755590176        0.0217344811
 H          0.4142965737        2.6092017538        1.0032561371
 C          1.2022018953        3.4904604830       -0.7793728331
 C          0.4690227263        4.7881958953       -0.6264470752
 C          1.8494581699        4.6366193702       -0.0637749120
 H          2.6660391079        5.1517362862       -0.5470583265
 H          1.9620640534        4.5511547743        1.0075576023
 H          0.3393633651        5.4132320565       -1.4970559886
 H         -0.3581905190        4.8172109664        0.0663526455
 H          1.5888110906        3.2290846892       -1.7575728804
 O          2.2654723459        0.8148230399       -1.9615534282
