  62
        -98.93806749
 C         -1.7764513053       -1.1125981855       -0.0264866935
 C         -2.2662398809        0.0503042479       -0.6618754522
 C         -3.7348387985        0.2061004893       -0.7219927542
 C         -4.5121483277       -0.7509267775       -0.1818842160
 C         -6.0143911651       -0.7889249171       -0.0878564670
 C         -6.5637153233        0.1438630505        1.0037989366
 C         -5.9216259191        1.5279233412        1.0508640564
 H         -6.3145550817        2.0464810261        1.9294177012
 H         -4.8447754809        1.4200019798        1.1935629345
 C         -6.1854146161        2.4094030054       -0.1675063557
 H         -7.2627082807        2.5478815646       -0.2836011675
 H         -5.7451815418        3.3883687097        0.0389163572
 C         -5.6150095019        1.9040107549       -1.4942580767
 H         -5.6642836463        2.7329607395       -2.2065487093
 H         -6.2277904975        1.1070448807       -1.9068629942
 C         -4.1539468111        1.4688586814       -1.4354538426
 H         -3.7803198139        1.3640007556       -2.4615536160
 H         -3.5557816390        2.2752180558       -0.9953537134
 H         -7.6409656809        0.2444027939        0.8613349380
 H         -6.3942862396       -0.3336971125        1.9718749732
 H         -6.4545436895       -0.5578191427       -1.0532762264
 H         -6.2864847284       -1.8162318446        0.1642695028
 O         -3.9912946849       -1.8567785665        0.4238142490
 C         -2.6309117085       -2.0689556846        0.5200876656
 O         -2.3093027900       -3.1223465647        1.1065307051
 H          1.7981561980        0.3061129191       -0.7230096866
 C          1.4197964681        0.5271348839        0.2606183512
 C          0.3739296736       -0.2056604733        0.7978160347
 C         -0.0986832568        0.1318788411        2.0645594715
 C          0.4480748036        1.1882534983        2.7651376010
 C          1.4859989517        1.9256200085        2.2220661514
 C          1.9678870712        1.5947952763        0.9614726520
 N          3.0092307958        2.3343428988        0.3909419957
 S          4.0638276191        1.6902363084       -0.7200078892
 O          5.2101490221        2.5737664253       -0.6707390725
 O          3.4372291409        1.5541152245       -2.0109314161
 C          4.5266517587        0.0800447796       -0.1025660907
 C          4.7592388408       -0.0936652361        1.2473216224
 C          5.1453239659       -1.3432202888        1.7049974816
 C          5.3000114843       -2.3914086586        0.8109273734
 C          5.0715778737       -2.1994659866       -0.5424246201
 C          4.6811421901       -0.9527377239       -1.0044291209
 H          4.4868092591       -0.7596616469       -2.0472800000
 H          5.1925225915       -3.0145691524       -1.2378424218
 H          5.5999158554       -3.3630599147        1.1705327322
 H          5.3238441134       -1.4953455802        2.7572709884
 H          4.6367219844        0.7356396142        1.9242963592
 H          3.4330713553        3.0334444562        0.9808901459
 H          1.9100399524        2.7580316682        2.7625494496
 H          0.0660440246        1.4411706932        3.7426874108
 H         -0.9122395820       -0.4438064398        2.4852923945
 C         -0.2806332330       -1.3562014102        0.0747071957
 H         -0.1641383470       -2.2583060733        0.6928636113
 C          0.2971196067       -1.6311135285       -1.2968515963
 C          1.5301731773       -2.4697910342       -1.4382448540
 C          0.1989977998       -3.0184416635       -1.8538597303
 H         -0.0056433144       -3.1383521522       -2.9072093620
 H         -0.2653942830       -3.7690824868       -1.2308128228
 H          1.9809832942       -2.8533385450       -0.5355017971
 H          2.2391358433       -2.2100318512       -2.2093016912
 H          0.1584826370       -0.8048212561       -1.9852403292
 O         -1.5188247029        0.9338507314       -1.1590824295
