  62
        -98.93637936
 C         -2.4143439230        0.8617094173       -0.2491144688
 C         -3.6825953082        0.9500290475       -0.8786428539
 C         -4.8416465307        0.5908338331       -0.0549984911
 C         -4.6567008420        0.1925854473        1.2164387774
 C         -5.7379807809       -0.1837751392        2.1927674127
 C         -6.2142896618       -1.6373987023        2.0674193822
 C         -7.0659866139       -1.9386684778        0.8335579674
 H         -7.5097588007       -2.9248597611        0.9836331438
 H         -7.8836127842       -1.2196854203        0.7731718108
 C         -6.2850182774       -1.9455098018       -0.4881007500
 H         -5.2158690342       -2.0294499213       -0.2787844168
 H         -6.5652062960       -2.8248107613       -1.0726521389
 C         -6.5222325397       -0.7203245040       -1.3711670875
 H         -5.8924127609       -0.8111014319       -2.2599392842
 H         -7.5642168313       -0.7004566535       -1.6981489155
 C         -6.1967192396        0.6179963646       -0.6952216878
 H         -6.9611077250        0.8628517580        0.0419802540
 H         -6.1870845117        1.3957866047       -1.4628220012
 H         -5.3403888227       -2.2930596198        2.0762257917
 H         -6.8079827190       -1.8633463095        2.9561898653
 H         -5.3172533806       -0.0447667334        3.1909590515
 H         -6.5873289152        0.4900450132        2.0761387129
 O         -3.4239550179        0.1018819616        1.7795412897
 C         -2.2716984044        0.4081561082        1.0633152426
 O         -1.2220274426        0.2393273402        1.7101632419
 O         -3.8376570535        1.3128267552       -2.0751675655
 C         -1.1948171017        1.2068913699       -1.0849554957
 C         -0.1572619444        0.1195412462       -0.9626762410
 C         -0.4685783499       -1.1518459453       -1.4378405517
 C          0.4424806400       -2.1857697032       -1.3441191827
 C          1.6863873825       -1.9753207568       -0.7755769167
 C          2.0082909971       -0.7118369602       -0.3009333753
 C          1.0929192982        0.3291322841       -0.4044075217
 H          1.3500160810        1.3010354308       -0.0127329572
 N          3.2633136719       -0.4959823986        0.2946892497
 S          4.6086815626       -1.1715527819       -0.4687520917
 O          4.5275235997       -0.9563655482       -1.8965448187
 O          4.7360497029       -2.5447486485       -0.0483609255
 C          5.9267818219       -0.1991139329        0.2331557285
 C          6.4301425372       -0.5523328649        1.4707661217
 C          7.4359296759        0.2202776677        2.0292822635
 C          7.9180670114        1.3267524863        1.3457638683
 C          7.4038390970        1.6677659713        0.1037823095
 C          6.3969405008        0.9002057471       -0.4601035229
 H          5.9741705754        1.1222620401       -1.4268798402
 H          7.7829059789        2.5266120825       -0.4263743526
 H          8.7016689620        1.9256394888        1.7823808843
 H          7.8401664724       -0.0427629830        2.9934434009
 H          6.0308115151       -1.4249329993        1.9607801246
 H          3.4154424513        0.4752503914        0.5288249375
 H          2.4096498935       -2.7711744079       -0.6960090454
 H          0.1844595046       -3.1666543651       -1.7154167331
 H         -1.4424491057       -1.3203312608       -1.8783151122
 H         -1.5687373861        1.1964453718       -2.1227792799
 C         -0.6423772343        2.6037583473       -0.8452598361
 C         -1.5444015201        3.7248039594       -0.4258368062
 C         -0.5106236998        3.2006444883        0.5229230482
 H          0.3508077990        3.8191704417        0.7300988156
 H         -0.8328755673        2.6055861486        1.3626738298
 H         -1.3936757482        4.6981116646       -0.8680262754
 H         -2.5807953370        3.4868757251       -0.2354852055
 H          0.1335033783        2.8557067899       -1.5624386811
