  62
        -98.94273593
 C          1.4489021686        1.1860139328        0.0231646876
 C          2.6995876283        1.2921955068        0.6871566976
 C          3.4528913548        0.0445516756        0.8675794807
 C          2.9037165304       -1.1155598244        0.4653219755
 C          3.5695568156       -2.4571529689        0.5587332952
 C          4.3546246213       -2.7767546696       -0.7209316750
 C          5.2791407146       -1.6472553886       -1.1753387490
 H          5.8055081945       -1.9955066490       -2.0667358119
 H          4.6735940221       -0.7890432237       -1.4756842055
 C          6.3013408038       -1.2002073367       -0.1208422847
 H          6.4037047628       -1.9688902945        0.6460346679
 H          7.2758221160       -1.0914838943       -0.6017765399
 C          5.9823582396        0.1399702323        0.5449594252
 H          5.7904076659        0.8936663400       -0.2232289780
 H          6.8665038915        0.4611764107        1.1022165949
 C          4.8015453401        0.1358780393        1.5242206972
 H          4.9316087180       -0.6669875233        2.2528595409
 H          4.8107362638        1.0897685529        2.0598788432
 H          4.9406488250       -3.6817025132       -0.5504499147
 H          3.6421522081       -2.9788659617       -1.5239046521
 H          4.2366677382       -2.4671220030        1.4184583823
 H          2.7985086583       -3.2158027980        0.7003981372
 O          1.6855524381       -1.1884574487       -0.1221890198
 C          0.9323695810       -0.0486584882       -0.3808749458
 O         -0.1394825631       -0.2886303259       -0.9630521708
 H         -1.6451145490        1.7375055059       -1.4302787013
 C         -1.7852460506        1.8275771308       -0.3647109419
 C         -0.7294211589        2.2384948599        0.4339422764
 C         -0.9276516522        2.3353679746        1.8073167103
 C         -2.1539342335        2.0263263918        2.3668992601
 C         -3.1960707695        1.5836867751        1.5709625925
 C         -3.0000394279        1.4674953204        0.2010579755
 N         -4.0374855979        0.9653593317       -0.6122800868
 S         -4.6322884414       -0.5548102467       -0.2309353812
 O         -5.3916196243       -0.9632136605       -1.3921140236
 O         -5.3716080558       -0.4656432032        1.0047958945
 C         -3.2205686112       -1.6224539980       -0.0156065202
 C         -2.6130587921       -1.7024439940        1.2205907851
 C         -1.4923239609       -2.5035480092        1.3628957700
 C         -1.0045093681       -3.2098453114        0.2756381728
 C         -1.6290388538       -3.1221103279       -0.9575404706
 C         -2.7440942525       -2.3160385085       -1.1086340790
 H         -3.2564380183       -2.2179656834       -2.0524530272
 H         -1.2410224488       -3.6667974932       -1.8034486719
 H         -0.1258624734       -3.8258513426        0.3878365372
 H         -0.9973482926       -2.5658965095        2.3195797026
 H         -3.0221837007       -1.1434027514        2.0462771657
 H         -3.7986305283        0.9813292799       -1.5942820226
 H         -4.1492442309        1.3058058228        1.9914030720
 H         -2.2974155208        2.1169644236        3.4331261408
 H         -0.1033014308        2.6447899687        2.4348739919
 C          0.6437675947        2.4659059586       -0.1400839169
 H          1.1676845706        3.1995457163        0.4929203922
 C          0.6169834686        3.0471558629       -1.5452186342
 C          1.8670409371        3.0749851495       -2.3720253239
 C          0.7119450598        2.2174158135       -2.7888048380
 H          0.1327497083        2.5246729529       -3.6478508049
 H          0.7972891730        1.1478064927       -2.6829165382
 H          2.0898787588        3.9606894316       -2.9475969750
 H          2.7399830998        2.5886912141       -1.9612419908
 H         -0.0180699141        3.9266508805       -1.5999016115
 O          3.1645509173        2.3836938996        1.1120377645
