  62
        -98.94449032
 C         -1.7099779699       -1.1681329995       -0.3964201701
 C         -3.0552158598       -1.3539067995        0.0002507900
 C         -3.9594145197       -0.2300212993       -0.2682527995
 C         -3.4838911797        0.8841947708       -0.8541889991
 C         -4.2851463096        2.1096889211       -1.2021643186
 C         -4.4740506694        3.0874179307       -0.0340029682
 C         -5.4494898693        2.6277047704        1.0504135517
 H         -5.6547317491        3.4925348402        1.6845899221
 H         -6.3924975494        2.3326659306        0.5890477218
 C         -4.9251788893        1.4847338300        1.9309075613
 H         -5.1238673191        1.7125687696        2.9806557414
 H         -3.8410871993        1.4072761699        1.8200880511
 C         -5.5506223695        0.1212194802        1.6371898609
 H         -6.6168475194        0.1477921202        1.8732428510
 H         -5.0808839495       -0.6199102501        2.2890340105
 C         -5.3828056497       -0.3492170693        0.1866735807
 H         -5.6605890598       -1.4049853193        0.1350477003
 H         -6.0417597497        0.2174541010       -0.4709240091
 H         -4.8470089193        4.0253572508       -0.4519253078
 H         -3.4990589193        3.2880262004        0.4157818317
 H         -5.2601298697        1.8124444713       -1.5896243986
 H         -3.7381473797        2.6233907313       -1.9954640785
 O         -2.1839768397        1.0195330208       -1.2284959793
 C         -1.2624862998        0.0044032607       -1.0069470697
 O         -0.1099941298        0.2620636507       -1.3975775598
 O         -3.4788341799       -2.4058126597        0.5504226597
 C         -0.7064227500       -2.2785980597       -0.1402189006
 C          0.4175124502       -1.7341958801        0.7043253394
 C          0.1126102604       -1.1983342406        1.9532957496
 C          1.0965219806       -0.6363539809        2.7431580997
 C          2.4088941105       -0.5920593709        2.3041380096
 C          2.7231714603       -1.1238134905        1.0618104393
 C          1.7337197902       -1.6997966601        0.2746611592
 H          1.9980931500       -2.1050405898       -0.6892538009
 N          4.0552432103       -1.0770029305        0.6028217692
 S          4.7812401104        0.4298864795        0.4969778596
 O          5.9612331003        0.2219883596       -0.3119110106
 O          5.0052827706        0.9391878390        1.8264889198
 C          3.6088144304        1.4539991699       -0.3695252699
 C          3.6093899502        1.4295828504       -1.7495021699
 C          2.6597118102        2.1694225308       -2.4330755395
 C          1.7231025104        2.9080596306       -1.7281145491
 C          1.7356011006        2.9211200501       -0.3430490991
 C          2.6851704306        2.1863626097        0.3472744705
 H          2.7257183407        2.1719330594        1.4243241705
 H          1.0006355307        3.4926864200        0.2012978412
 H          0.9736617404        3.4714379109       -2.2612309488
 H          2.6439493401        2.1594347811       -3.5112471195
 H          4.3567549301        0.8438018805       -2.2610755602
 H          4.1893190201       -1.5715830402       -0.2681689310
 H          3.1885214307       -0.1437781712        2.8985396596
 H          0.8422533708       -0.2253337413        3.7087038899
 H         -0.9143615395       -1.2213996006        2.2922104498
 H         -1.2473103000       -3.0360230599        0.4449645292
 C         -0.2576268602       -2.9002299893       -1.4454050609
 C          0.2942043697       -4.2937473093       -1.4628197515
 C         -1.0643176204       -4.0179358990       -2.0320722812
 H         -1.1929154805       -4.0536396686       -3.1035133912
 H         -1.9306897204       -4.3487716791       -1.4784097312
 H          1.0980535595       -4.5239053792       -2.1458890017
 H          0.3528915297       -4.8189771697       -0.5215612417
 H          0.1594021298       -2.1737485591       -2.1341646407
