  62
        -98.94413877
 C         -1.7167039243       -1.4492464766        0.2086513445
 C         -2.0180198150       -0.6924616678       -0.9496688206
 C         -2.9044756660        0.4663094937       -0.7535995536
 C         -3.3270977314        0.7802502820        0.4838558001
 C         -4.1924328198        1.9573587216        0.8267077520
 C         -3.3587049113        3.2054953274        1.1487293265
 C         -2.2896112465        3.5272917662        0.1046538442
 H         -1.7933588566        4.4479906854        0.4186202107
 H         -1.5322996771        2.7414762240        0.1090787031
 C         -2.8225848492        3.6941492037       -1.3244426617
 H         -3.8987204987        3.8702148991       -1.3045273768
 H         -2.3577134087        4.5753493822       -1.7716257303
 C         -2.5190269289        2.5136486414       -2.2487972614
 H         -1.4520818813        2.2780370130       -2.2016805469
 H         -2.7360698871        2.8213107032       -3.2754367116
 C         -3.3178490183        1.2316879222       -1.9801200082
 H         -4.3831022896        1.4691898001       -1.9389056099
 H         -3.1509134142        0.5565363012       -2.8247274500
 H         -4.0379190096        4.0541170111        1.2472506792
 H         -2.8638246599        3.0557047635        2.1109827890
 H         -4.8603471048        2.1620944020       -0.0080902331
 H         -4.7905423902        1.6971431090        1.7017167880
 O         -2.9764327154        0.0636031161        1.5811347833
 C         -2.1905383577       -1.0714333128        1.4706909527
 O         -1.9833017246       -1.6525277536        2.5524405039
 H          0.4929299199       -1.2641025102       -1.6287390401
 C          1.1307524427       -1.5674132602       -0.8115737451
 C          0.6045151616       -2.3459423564        0.2087281047
 C          1.4382564690       -2.7195271613        1.2557432749
 C          2.7640443273       -2.3203012705        1.2789980654
 C          3.2760622240       -1.5164194262        0.2760406375
 C          2.4451106519       -1.1310406251       -0.7677013242
 N          2.9231594310       -0.2215875280       -1.7344491462
 S          3.4692288830        1.2299789683       -1.0873720091
 O          3.0700462313        2.2570335609       -2.0242970680
 O          4.8863595578        1.1301433400       -0.8397726663
 C          2.6157499736        1.4132101789        0.4736534999
 C          3.3559707670        1.5232688069        1.6330620793
 C          2.6960414216        1.6011350563        2.8488389861
 C          1.3118459361        1.5492904668        2.8855989428
 C          0.5814726351        1.4412406773        1.7124648795
 C          1.2347112462        1.3810724679        0.4926159862
 H          0.6840776545        1.2979587010       -0.4322358188
 H         -0.4953408109        1.3833637542        1.7486605035
 H          0.7923657500        1.5862741157        3.8300440223
 H          3.2609720586        1.6886722834        3.7627154110
 H          4.4311325774        1.5368425258        1.5587412506
 H          2.2449189521       -0.0387640000       -2.4616451046
 H          4.2950825944       -1.1639493764        0.2932184871
 H          3.4003887870       -2.6216754043        2.0965813519
 H          1.0352757142       -3.3086303189        2.0661269348
 C         -0.8605348346       -2.7095850183        0.1974146669
 H         -1.0845444981       -3.2280331119        1.1388209947
 C         -1.1833715753       -3.6440177528       -0.9520928830
 C         -0.8249871762       -5.0931457594       -0.8297809718
 C         -2.2618784342       -4.6692974044       -0.7829326427
 H         -2.8965156049       -4.8929342760       -1.6272794941
 H         -2.7735264086       -4.7047485151        0.1680647058
 H         -0.4694712979       -5.6109963033       -1.7073055060
 H         -0.3633880960       -5.4190585279        0.0899694894
 H         -1.0871145447       -3.1820861951       -1.9256040225
 O         -1.5862492151       -0.9468624659       -2.1075179546
