  62
        -98.94182972
 C         -2.7814668424       -0.4150633182       -0.2604118330
 C         -2.0874443429        0.4518173190       -1.1394972055
 C         -2.1958885127        1.8888326255       -0.8476943082
 C         -2.9477944281        2.3044096370        0.1861431414
 C         -3.1085563029        3.7325867148        0.6174478778
 C         -2.0723142449        4.1179047351        1.6819570039
 C         -0.6351861979        3.7400721914        1.3209196290
 H          0.0080811765        4.1078241459        2.1238642713
 H         -0.5324585269        2.6515773371        1.3119047690
 C         -0.1447983933        4.2996302590       -0.0214555860
 H         -0.7781998946        5.1318497530       -0.3323067564
 H          0.8655061201        4.6906471252        0.1154208164
 C         -0.0732416753        3.2627026968       -1.1441821829
 H          0.4511795563        2.3754813727       -0.7773402787
 H          0.5166325380        3.6859583679       -1.9621133831
 C         -1.4232393917        2.8276961195       -1.7304139860
 H         -2.0198269717        3.7088051466       -1.9756867089
 H         -1.2260771207        2.2771973439       -2.6548379193
 H         -2.1343537376        5.1953194085        1.8471286310
 H         -2.3315083322        3.6150625301        2.6166275792
 H         -3.0108638380        4.3812168951       -0.2508829573
 H         -4.1083256648        3.8519354384        1.0388074855
 O         -3.6309095819        1.4482578684        0.9880790884
 C         -3.5384145273        0.0805744203        0.8065523388
 O         -4.1819886276       -0.5878136212        1.6409205879
 O         -1.4041386399        0.0732561084       -2.1298274338
 C         -2.7086927557       -1.9346734370       -0.3472017852
 C         -1.4201364240       -2.3877234575        0.2970788584
 C         -1.4180826046       -3.1210981567        1.4775426428
 C         -0.2273896948       -3.4409841098        2.1080786044
 C          0.9835366754       -3.0204564318        1.5862966875
 C          0.9879579429       -2.2906120762        0.4062516788
 C         -0.2012154700       -2.0000868146       -0.2408045708
 H         -0.1843256594       -1.4162360522       -1.1491499796
 N          2.2167150011       -1.7868320285       -0.1026804728
 S          2.6889799838       -0.4155382790        0.7789837451
 O          2.9775756418       -0.8353169239        2.1272941440
 O          1.7064099510        0.6372441779        0.6373099317
 C          4.2005066324        0.0262088556       -0.0552519497
 C          4.2064901520        1.0802804392       -0.9476137154
 C          5.3832469811        1.3867115269       -1.6134876481
 C          6.5243562225        0.6345363816       -1.3798128377
 C          6.5012191119       -0.4226370726       -0.4819094469
 C          5.3290369619       -0.7329100486        0.1883026538
 H          5.2636865804       -1.5392318446        0.8995859353
 H          7.3909891684       -1.0043834532       -0.3029906992
 H          7.4378559776        0.8748958173       -1.9004381963
 H          5.4037222266        2.2087173973       -2.3108469697
 H          3.2961886842        1.6399634955       -1.0951165675
 H          2.0927480755       -1.4854965393       -1.0631032406
 H          1.9142469038       -3.2217232342        2.0906759786
 H         -0.2440304822       -4.0077747485        3.0268019876
 H         -2.3607782546       -3.4147663163        1.9167115350
 H         -3.5411974594       -2.3096129992        0.2628567653
 C         -2.8616357399       -2.4762888414       -1.7539858142
 C         -3.2768176495       -3.9039803743       -1.9374214310
 C         -4.2309347084       -2.7969854315       -2.2692504816
 H         -4.4499998145       -2.5947842457       -3.3068246794
 H         -5.0665761228       -2.6268406487       -1.6058141460
 H         -2.8396868932       -4.4664712607       -2.7479252742
 H         -3.4673054811       -4.4870768651       -1.0490838246
 H         -2.1525093823       -2.0617500692       -2.4575116984
