  62
        -98.95135752
 C         -2.3394019150       -0.0845731167        0.1125270933
 C         -1.6114080499        0.4800986892       -0.9612023719
 C         -1.4500541113        1.9385048646       -0.9285913295
 C         -1.9030251138        2.6339458288        0.1302657754
 C         -1.8185216888        4.1248347687        0.3147941659
 C         -0.4630107065        4.6083701732        0.8477707644
 C          0.6732873736        4.6123419405       -0.1752545506
 H          0.3455006054        5.1275729599       -1.0792983015
 H          1.4889052625        5.1956419597        0.2569093612
 C          1.2070904915        3.2195822164       -0.5379304337
 H          0.9177995549        2.5004891174        0.2324591162
 H          2.3003787392        3.2418180663       -0.5473683941
 C          0.7570321291        2.7017041643       -1.9031637325
 H          1.1816213413        1.7053760052       -2.0393973310
 H          1.1559836894        3.3491474347       -2.6878780277
 C         -0.7631148821        2.6053321197       -2.0839886069
 H         -1.1827873267        3.5999201022       -2.2380253795
 H         -0.9605624375        2.0018418197       -2.9737500735
 H         -0.6004549380        5.6295481894        1.2117447237
 H         -0.1792199172        3.9851156271        1.6996542200
 H         -2.0403860819        4.6264175295       -0.6279541658
 H         -2.5901887636        4.3909590796        1.0405650632
 O         -2.5320970180        2.0437241844        1.1813273767
 C         -2.7691898834        0.6800089676        1.1960866713
 O         -3.3707295705        0.2719803874        2.2125073602
 O         -1.1309774073       -0.1967217988       -1.9084106761
 C         -2.6007810980       -1.5807429726        0.1535581173
 C         -1.2868934819       -2.3228685480        0.1961313027
 C         -0.9995293287       -3.4372384165       -0.5819442492
 C          0.2407433388       -4.0474581363       -0.4994580448
 C          1.2243614388       -3.5476584708        0.3348127439
 C          0.9429022486       -2.4372537560        1.1223552856
 C         -0.3135747954       -1.8569951366        1.0706133050
 H         -0.5219716697       -0.9987727615        1.6927935121
 N          1.9160223879       -1.8598575167        1.9654309883
 S          2.3578709713       -0.2780997769        1.6222413471
 O          3.4316752615        0.0200970931        2.5454755286
 O          1.2045891105        0.5810871406        1.6873771556
 C          3.0126331771       -0.3628779261       -0.0353507736
 C          4.3840738593       -0.3402781177       -0.2049801570
 C          4.9078077717       -0.4852516145       -1.4790635709
 C          4.0551559024       -0.6649691936       -2.5582252548
 C          2.6823932474       -0.6921242315       -2.3707962850
 C          2.1500119329       -0.5385857831       -1.0990713922
 H          1.0831355014       -0.5480005633       -0.9394975871
 H          2.0084894183       -0.8296359779       -3.2015428030
 H          4.4608077402       -0.7842164784       -3.5504216660
 H          5.9756391908       -0.4621232564       -1.6256422042
 H          5.0063685079       -0.2024473104        0.6645091343
 H          2.7511429463       -2.4210458807        2.0665292102
 H          2.2004596131       -4.0068777078        0.3770882985
 H          0.4506622042       -4.9128531338       -1.1091227342
 H         -1.7445713357       -3.8245337025       -1.2573004336
 H         -3.1269853384       -1.7689645524        1.1013080966
 C         -3.4951588736       -1.9957960121       -0.9958102660
 C         -4.4069240176       -3.1764376374       -0.8536787384
 C         -4.9737486078       -1.7895022475       -0.8712643352
 H         -5.5248739238       -1.4656690599       -1.7412577602
 H         -5.3387424810       -1.3716696480        0.0561078830
 H         -4.5741503229       -3.8062886967       -1.7143411250
 H         -4.3970197892       -3.7059165987        0.0871158391
 H         -3.0440867182       -1.8078141191       -1.9630755799
