  62
        -98.93599477
 C         -1.9662851106       -1.1242970929        0.3455785650
 C         -2.2961481047       -0.0608453933       -0.5271257415
 C         -3.5619705466        0.6499666288       -0.2519566406
 C         -4.3114052121        0.2959985879        0.8074547662
 C         -5.6001247272        0.8700735680        1.3584779017
 C         -6.4510136723        1.8254103871        0.5257682775
 C         -7.1028801862        1.1942195092       -0.7040745491
 H         -7.8738274347        0.4959731297       -0.3685050511
 H         -7.5961441017        1.9853480861       -1.2730502329
 C         -6.1604655547        0.4293179091       -1.6299345716
 H         -5.7371036405       -0.4247557013       -1.0972990250
 H         -6.7551198294        0.0303396767       -2.4562780938
 C         -5.0237115216        1.2533582511       -2.2313299865
 H         -4.5328082051        0.6341734328       -2.9870107082
 H         -5.4329839230        2.1316393390       -2.7343880268
 C         -3.9425968856        1.7160483223       -1.2392376109
 H         -3.0374471241        1.9440331046       -1.8098829398
 H         -4.2407024200        2.6268481490       -0.7252879232
 H         -5.8707566105        2.6992059133        0.2439771978
 H         -7.2533150146        2.1772388329        1.1801321619
 H         -6.2095126939        0.0076852101        1.6471221543
 H         -5.3236035265        1.3760391346        2.2902884590
 O         -3.9325188380       -0.7132003961        1.6455126477
 C         -2.7818884009       -1.4475042969        1.4326732238
 O         -2.5952919189       -2.3557653090        2.2667094978
 H          0.2252593660        0.5129416919       -0.1774464141
 C          0.8266541635       -0.0451728814        0.5248667059
 C          0.4757593046       -1.3534328807        0.8300671796
 C          1.2656131060       -2.0618243966        1.7275666729
 C          2.3725086278       -1.4702155908        2.3119017336
 C          2.7174618992       -0.1658386139        2.0078488001
 C          1.9374594337        0.5483971324        1.1067502075
 N          2.2896748463        1.8687006606        0.7753158886
 S          3.8933997722        2.1561881258        0.3876999128
 O          4.6602681843        2.3086995268        1.5994525663
 O          3.8766638149        3.3003640038       -0.4958371770
 C          4.4281471685        0.6936094455       -0.4830775746
 C          5.4065123688       -0.1136744925        0.0605242183
 C          5.7715061225       -1.2693574752       -0.6113037330
 C          5.1522905055       -1.5974487970       -1.8072163697
 C          4.1754089009       -0.7728801450       -2.3440327096
 C          3.8066466374        0.3840526946       -1.6767853716
 H          3.0515824762        1.0473210411       -2.0691224111
 H          3.6929695073       -1.0305716977       -3.2731142730
 H          5.4309074800       -2.5006493161       -2.3264659842
 H          6.5329395013       -1.9108775133       -0.1979097853
 H          5.8605992002        0.1787143159        0.9931832984
 H          1.6685469196        2.2927556532        0.1015977624
 H          3.5705598267        0.3140528085        2.4592997943
 H          2.9727879864       -2.0298405278        3.0126069851
 H          0.9973933233       -3.0776143801        1.9782834090
 C         -0.7270405403       -1.9909510243        0.1839139559
 H         -0.9518196486       -2.9119898830        0.7441257301
 C         -0.4777547958       -2.3962805734       -1.2639570001
 C          0.6549759141       -1.8797860210       -2.0937118829
 C          0.6755837075       -3.2940151691       -1.6030809064
 H          0.5173815114       -4.0943814629       -2.3096900920
 H          1.3655061670       -3.5329457985       -0.8078709536
 H          0.4589659687       -1.6905003037       -3.1380826686
 H          1.3398835341       -1.1783468009       -1.6447698284
 H         -1.4088226968       -2.5828700646       -1.7901864565
 O         -1.5792584062        0.3087985664       -1.4934575038
