  62
        -98.94462988
 C         -1.6842965429       -1.4331377601        0.1061954175
 C         -1.6215507176       -0.3245941018       -0.7734839034
 C         -2.9164704820        0.2487251176       -1.1730803169
 C         -4.0549980445       -0.2958109072       -0.7078499320
 C         -5.4340841528        0.2267652346       -0.9853279285
 C         -5.8706253771        1.2330026433        0.0887037260
 C         -4.8314871173        2.3160587476        0.3799017289
 H         -5.2596717341        2.9850358717        1.1296284873
 H         -3.9484561221        1.8551983820        0.8293801079
 C         -4.4044166176        3.1322045660       -0.8481121588
 H         -4.3867452016        4.1899026890       -0.5768577107
 H         -5.1394790138        3.0143678943       -1.6452597181
 C         -3.0143752257        2.7889286075       -1.3875071521
 H         -2.2839520668        2.8197200377       -0.5740155759
 H         -2.7289466861        3.5612201539       -2.1072522764
 C         -2.8897283732        1.4342761155       -2.0961427238
 H         -3.6640791911        1.3464586655       -2.8610645734
 H         -1.9133498623        1.4099048502       -2.5889043383
 H         -6.8033051636        1.6994699043       -0.2334155438
 H         -6.0649569195        0.6882027623        1.0154285950
 H         -5.4489599056        0.6970830596       -1.9664618173
 H         -6.1279397761       -0.6154827875       -0.9846315705
 O         -4.0753867940       -1.3698246963        0.1217649409
 C         -2.8983717677       -1.9487067244        0.5644878865
 O         -3.0614207481       -2.9059148758        1.3480643884
 H          1.9399882005       -0.6815277460        0.3620056410
 C          1.4376664683       -0.4778137363        1.2902521130
 C          0.2466135060       -1.1180063646        1.5885667819
 C         -0.3766673857       -0.8392079598        2.8031197498
 C          0.1838600747        0.0554679094        3.6934540184
 C          1.3667910448        0.7057412119        3.3828425683
 C          1.9911076287        0.4425452420        2.1710898725
 N          3.1996359081        1.0718883613        1.8206618363
 S          3.2593886910        1.8916678049        0.3499253404
 O          4.3964325613        2.7795526021        0.4894694608
 O          1.9981808500        2.5291568373        0.0549493026
 C          3.6588260283        0.6400812343       -0.8492973519
 C          2.7489422042        0.3015453093       -1.8313411958
 C          3.0955330489       -0.6809839148       -2.7466107177
 C          4.3330670222       -1.3007515207       -2.6646597856
 C          5.2348842523       -0.9453072599       -1.6724881653
 C          4.8975529693        0.0361966667       -0.7549218505
 H          5.5685596300        0.3482577612        0.0279405163
 H          6.1952044570       -1.4314281175       -1.6112759803
 H          4.5935949585       -2.0671559566       -3.3778763375
 H          2.3904169816       -0.9611603852       -3.5134809087
 H          1.7813518688        0.7795893259       -1.8430304475
 H          3.5808921177        1.6577788027        2.5508767109
 H          1.8011417438        1.4136573259        4.0731497962
 H         -0.3063966685        0.2568734534        4.6343189210
 H         -1.3088069653       -1.3363955626        3.0358717089
 C         -0.4168868539       -2.0852796831        0.6373491601
 H         -0.7500103723       -2.9541672670        1.2220653753
 C          0.4843880463       -2.5616858047       -0.4814174618
 C          1.5883336590       -3.5292975041       -0.1809367965
 C          0.3858281671       -3.9795146658       -0.9535658584
 H          0.4940412345       -4.1787376226       -2.0089565664
 H         -0.3288313472       -4.6222314713       -0.4600666494
 H          1.6902862792       -3.8671921333        0.8392055895
 H          2.5255351668       -3.4173574078       -0.7047487228
 H          0.6686057344       -1.8022864339       -1.2305449556
 O         -0.5498156756        0.1630716822       -1.2165706448
