  62
        -98.93973442
 C          1.1645079568        1.3716654287        0.0196868201
 C          1.5614982901        0.3171470251        0.8771278984
 C          2.4643266201       -0.6964526650        0.3074215123
 C          2.8081110374       -0.6116016253       -0.9891474548
 C          3.7034384799       -1.5187430032       -1.7972363969
 C          4.9565612352       -2.0748459192       -1.1117056206
 C          5.6463482860       -1.0997712109       -0.1462810004
 H          6.7030179423       -1.0256180002       -0.4098255345
 H          5.2146321020       -0.1028696084       -0.2503970049
 C          5.5560601603       -1.5418707412        1.3160536542
 H          5.7505943803       -2.6151483915        1.3714251895
 H          6.3417344252       -1.0383317314        1.8844755283
 C          4.2284766528       -1.2366728735        2.0087321609
 H          4.1270730256       -0.1579276272        2.1554034623
 H          4.2542203998       -1.6929136317        3.0012402224
 C          2.9724092339       -1.7297375287        1.2716240009
 H          3.1556275144       -2.6843792779        0.7858698490
 H          2.1779056253       -1.8627412672        2.0107138974
 H          4.7089011107       -2.9911054237       -0.5781950933
 H          5.6509752062       -2.3535505586       -1.9063273978
 H          3.1032300792       -2.3515344278       -2.1759752852
 H          3.9987397168       -0.9236048255       -2.6651340138
 O          2.3206083180        0.3662453452       -1.8036008745
 C          1.4955016401        1.3762170234       -1.3345372992
 O          1.1429104653        2.1866600451       -2.2110716543
 O          1.1797601945        0.2280169079        2.0749559291
 C          0.2922612750        2.4732315957        0.6015226100
 C         -1.1294756739        2.2237283957        0.1659491153
 C         -1.7280866532        2.8744672295       -0.9049699516
 C         -3.0157358921        2.5438065998       -1.2931238171
 C         -3.7322531555        1.5683788832       -0.6226000672
 C         -3.1396357651        0.9124230642        0.4485439100
 C         -1.8498631289        1.2406060476        0.8347577385
 H         -1.3810683148        0.7173991656        1.6583450816
 N         -3.8601358505       -0.1006842263        1.1252166159
 S         -4.0688009966       -1.5198324697        0.2620844707
 O         -4.8020564387       -1.2248345269       -0.9413887046
 O         -4.6828310104       -2.4532571379        1.1777612516
 C         -2.4180249506       -2.0630919287       -0.1410685359
 C         -1.8196377776       -3.0248322617        0.6478284060
 C         -0.5220175675       -3.4146608705        0.3608581070
 C          0.1546776307       -2.8290104577       -0.6971774170
 C         -0.4541821812       -1.8536630075       -1.4712305105
 C         -1.7542474631       -1.4640822957       -1.1933820672
 H         -2.2578098735       -0.7131641743       -1.7810035851
 H          0.0794469916       -1.3863769057       -2.2846565806
 H          1.1645425282       -3.1330205539       -0.9197662571
 H         -0.0403889955       -4.1686250200        0.9622762871
 H         -2.3847786833       -3.4561475597        1.4585605319
 H         -3.4599728230       -0.3280615766        2.0257139375
 H         -4.7283872208        1.2890557427       -0.9246572674
 H         -3.4677362627        3.0535431622       -2.1305851547
 H         -1.1768204246        3.6239670083       -1.4484145158
 H          0.3359029936        2.3302638802        1.6900728816
 C          0.8021190614        3.8597740712        0.2745324773
 C          0.2765708835        5.0299851454        1.0492905711
 C          1.6855270408        4.5648435804        1.2580671413
 H          2.4923446115        5.1747539732        0.8801941067
 H          1.9222066740        4.0512309497        2.1785810449
 H          0.1137913056        5.9617720190        0.5299164897
 H         -0.4446502639        4.8288354667        1.8270847217
 H          1.0205078095        4.0043361683       -0.7757556424
