  62
        -98.95135951
 C         -2.3404131785       -0.0524663774        0.1138337611
 C         -1.6103689100        0.5045081685       -0.9625282783
 C         -1.4252446068        1.9600173370       -0.9252255342
 C         -1.8576944287        2.6580872908        0.1404517913
 C         -1.7438528757        4.1461043812        0.3322066783
 C         -0.3752769930        4.6004206479        0.8575496866
 C          0.7531733887        4.5893516085       -0.1741036429
 H          0.4284995393        5.1166001649       -1.0723320858
 H          1.5829963623        5.1541555990        0.2555953721
 C          1.2575784086        3.1890637672       -0.5496700008
 H          2.3509788027        3.1908571673       -0.5678165471
 H          0.9608055231        2.4708886485        0.2187629636
 C          0.7868486974        2.6886790379       -1.9144559240
 H          1.1907535282        3.3344082336       -2.6980209860
 H          1.1923281581        1.6859681936       -2.0611739524
 C         -0.7362314055        2.6205983064       -2.0829882382
 H         -0.9519275235        2.0255625842       -2.9742205942
 H         -1.1393231423        3.6233455403       -2.2281246297
 H         -0.4904108579        5.6217045976        1.2289003230
 H         -0.0969490886        3.9664337513        1.7033254686
 H         -2.5047597855        4.4226957850        1.0653934840
 H         -1.9632187050        4.6571310853       -0.6060331737
 O         -2.4892505412        2.0740107422        1.1934143223
 C         -2.7499104773        0.7146290322        1.2035226259
 O         -3.3513164438        0.3122335436        2.2222933485
 O         -1.1473697867       -0.1759962525       -1.9157615168
 C         -2.6246461408       -1.5445684848        0.1522407261
 C         -1.3218016088       -2.3061767875        0.1920461829
 C         -1.0517484663       -3.4235155233       -0.5879870887
 C          0.1797049044       -4.0516847184       -0.5079883541
 C          1.1716505566       -3.5673515562        0.3255877848
 C          0.9074271936       -2.4541350674        1.1151805709
 C         -0.3406234401       -1.8557326700        1.0658223415
 H         -0.5358679885       -0.9956170706        1.6896334875
 N          1.8895872394       -1.8924424352        1.9580509511
 S          2.3517896689       -0.3147984749        1.6235314831
 O          3.4305353118       -0.0365154005        2.5472491331
 O          1.2103274261        0.5596256493        1.6949794100
 C          3.0032433818       -0.3980441182       -0.0354935560
 C          4.3744910280       -0.3865885432       -0.2077405863
 C          4.8943950095       -0.5300848829       -1.4835692889
 C          4.0380566508       -0.6978240540       -2.5617512632
 C          2.6654635267       -0.7138651290       -2.3716788407
 C          2.1369676132       -0.5612036615       -1.0982117840
 H          1.0703709696       -0.5610390710       -0.9365641565
 H          1.9887717836       -0.8418496987       -3.2017080349
 H          4.4405341475       -0.8161011328       -3.5553470689
 H          5.9620796305       -0.5153846971       -1.6322912663
 H          4.9996251687       -0.2580008437        0.6611302018
 H          2.7171145773       -2.4650293863        2.0572449240
 H          2.1410462568       -4.0407464388        0.3656199195
 H          0.3763081044       -4.9191769765       -1.1190968202
 H         -1.8032628479       -3.7989328290       -1.2628845389
 H         -3.1522183655       -1.7265000756        1.1004648623
 C         -3.5266632403       -1.9446600124       -0.9964375392
 C         -4.4560664150       -3.1113975959       -0.8538962251
 C         -5.0017465611       -1.7159940440       -0.8695181361
 H         -5.5492407290       -1.3832279496       -1.7384381958
 H         -5.3590176217       -1.2934343653        0.0587220086
 H         -4.6343116883       -3.7379523235       -1.7147545895
 H         -4.4527444913       -3.6416894159        0.0864948806
 H         -3.0740447861       -1.7626114765       -1.9640757151
