  62
        -98.94228894
 C         -1.9883333902       -1.2808604594       -0.1664876497
 C         -3.0951006901       -1.2211959693        0.7210832004
 C         -4.3036146201       -0.5537616292        0.2222338006
 C         -4.3073317302       -0.0547220691       -1.0268308694
 C         -5.4531086902        0.6846714110       -1.6533574392
 C         -5.3422152900        2.1963363710       -1.4107954192
 C         -5.0757649298        2.5707403609        0.0472720608
 H         -4.0844326898        2.2109171008        0.3331460107
 H         -5.0486839197        3.6612163309        0.1030328709
 C         -6.1151055498        2.0336904210        1.0412355409
 H         -6.3808766596        2.8335742209        1.7355622510
 H         -7.0246213599        1.7509703311        0.5098886610
 C         -5.6334467598        0.8524008609        1.8856784308
 H         -4.6717582598        1.0975633007        2.3437797407
 H         -6.3515545798        0.6985489109        2.6955174609
 C         -5.4882445600       -0.4822234991        1.1438421107
 H         -6.4106726501       -0.7046122190        0.6033198908
 H         -5.3314452300       -1.2634975392        1.8933264706
 H         -4.5226994300        2.5862089210       -2.0191480192
 H         -6.2676300400        2.6682576911       -1.7460458690
 H         -5.4374667103        0.4963620211       -2.7282614992
 H         -6.3878847202        0.3082246411       -1.2422397292
 O         -3.2352092503       -0.1340012992       -1.8523415195
 C         -2.0470466803       -0.7332990593       -1.4485738996
 O         -1.1569281804       -0.7003691893       -2.3192747297
 O         -3.0735447501       -1.7178592194        1.8789688204
 C         -0.7482262103       -1.9924346195        0.3472202702
 C          0.2626634099       -1.0240379997        0.9053791501
 C          0.7980603700       -1.2045444798        2.1753177701
 C          1.7352984401       -0.3185315499        2.6786212200
 C          2.1640915502        0.7577377001        1.9233111700
 C          1.6399856801        0.9428098002        0.6498726901
 C          0.6952955899        0.0578391103        0.1501260301
 H          0.2906376298        0.2075150804       -0.8400847498
 N          2.0855813901        2.0210222102       -0.1353335999
 S          3.7414771501        2.2526732300       -0.2402746100
 O          4.1989766903        2.9702662199        0.9238945900
 O          3.9589471800        2.9074778201       -1.5105639500
 C          4.4390366999        0.6106535100       -0.2492653602
 C          4.1320736198       -0.2184645199       -1.3100973702
 C          4.6254259896       -1.5131664500       -1.3135164403
 C          5.4106248397       -1.9550151901       -0.2596596704
 C          5.7151871299       -1.1084941902        0.7948016596
 C          5.2246069200        0.1874674798        0.8035206997
 H          5.4361042301        0.8782110198        1.6032328097
 H          6.3283156599       -1.4541259703        1.6113600095
 H          5.7858805596       -2.9660121402       -0.2629978605
 H          4.3873662695       -2.1732078399       -2.1320274403
 H          3.5200239197        0.1563032202       -2.1157636601
 H          1.6543582800        2.0580699903       -1.0475869998
 H          2.8878843303        1.4621292600        2.2998138500
 H          2.1362742802       -0.4666938800        3.6694064600
 H          0.4632630000       -2.0383337698        2.7746085800
 H         -1.1140079202       -2.6038620295        1.1871222702
 C         -0.1482769805       -2.9497565195       -0.6750374499
 C          1.1465383095       -2.7120768296       -1.3859959401
 C          1.0619096395       -3.7645348497       -0.3244307601
 H          1.0883147094       -4.8032106797       -0.6163158102
 H          1.5418887796       -3.5549939398        0.6195181099
 H          1.2074300394       -3.0139047096       -2.4204642201
 H          1.6950875696       -1.8108889197       -1.1633450701
 H         -0.9214515306       -3.4510039794       -1.2495137699
