  62
        -98.94511196
 C          2.2784003566        0.7135310412       -0.0234983024
 C          3.2842905897        0.6921876452        0.9755195049
 C          4.1857400573       -0.4664125859        0.9618433413
 C          3.9880755860       -1.4409095010        0.0553649259
 C          4.8588070162       -2.6528253444       -0.1035373226
 C          5.9858028722       -2.3985071572       -1.1146396222
 C          6.7552590642       -1.1004562616       -0.8693597309
 H          7.5431684655       -1.0426708469       -1.6234322640
 H          6.0867110977       -0.2530671960       -1.0376189538
 C          7.3766643410       -0.9850981135        0.5295456686
 H          7.4323755250       -1.9709341098        0.9924895921
 H          8.3994319459       -0.6159606229        0.4287532889
 C          6.6470775287       -0.0242138248        1.4700722225
 H          6.5069185006        0.9388354045        0.9728711215
 H          7.2839747950        0.1470316163        2.3418944149
 C          5.2843820381       -0.5026459162        1.9868582010
 H          4.9726846951        0.1792144114        2.7833837351
 H          5.3822732314       -1.5039268443        2.4111104671
 H          5.5490380656       -2.3541081801       -2.1150798003
 H          6.6750008691       -3.2443052632       -1.0824333449
 H          5.2782562276       -2.9216445257        0.8640318974
 H          4.2389486263       -3.4764276592       -0.4621492691
 O          2.9877275558       -1.4068863979       -0.8610246648
 C          2.1143891634       -0.3306647157       -0.9335986654
 O          1.2641214309       -0.4306844278       -1.8397691492
 O          3.4222007945        1.6024107883        1.8353180098
 C          1.3306542787        1.9017646483       -0.0553740648
 C         -0.0404888384        1.4276297997        0.3568546279
 C         -0.3204411927        1.2583299915        1.7103549846
 C         -1.5458107417        0.7695853109        2.1211296758
 C         -2.5152528795        0.4308911064        1.1924314736
 C         -2.2381955274        0.5769617784       -0.1594853724
 C         -1.0134539072        1.0888032259       -0.5695973057
 H         -0.8079876906        1.1858326007       -1.6237207733
 N         -3.2102160634        0.2313125501       -1.1126505812
 S         -4.0696910337       -1.1951653286       -0.9153582084
 O         -3.3082089285       -2.1946549113       -0.2021906393
 O         -4.5165494488       -1.5527381561       -2.2442915506
 C         -5.4818869130       -0.6961429411        0.0506948409
 C         -6.2234860717        0.3828211961       -0.3895541343
 C         -7.3283884347        0.7806491825        0.3458556838
 C         -7.6740741356        0.0948806715        1.5008154910
 C         -6.9224855550       -0.9891579944        1.9272638657
 C         -5.8150277564       -1.3913678029        1.1965886846
 H         -5.1975096961       -2.2243218277        1.4936444718
 H         -7.1926121346       -1.5218483640        2.8249109121
 H         -8.5340508440        0.4070471039        2.0720395228
 H         -7.9148916951        1.6235027712        0.0173792836
 H         -5.9230324802        0.8871829797       -1.2925866662
 H         -2.8904041368        0.3277319018       -2.0658153507
 H         -3.4687034624        0.0381023151        1.5052666046
 H         -1.7504489527        0.6480639492        3.1740037071
 H          0.4433528780        1.5043716794        2.4348800741
 H          1.7006818581        2.5863705678        0.7197165698
 C          1.3592250187        2.6164834516       -1.3899682746
 C          0.7651366755        3.9880829088       -1.4989500436
 C          2.2512214685        3.8076885719       -1.5628609637
 H          2.7484478159        3.9445041296       -2.5115418383
 H          2.8414418506        4.1168847907       -0.7127435390
 H          0.2398582864        4.2527420994       -2.4038355764
 H          0.3445289090        4.4187195885       -0.6030413515
 H          1.2583637927        1.9494728670       -2.2377309900
