  62
        -98.94319208
 C         -2.3939754299       -0.4269434504        0.1087342909
 C         -3.4660166698       -0.4061789196        1.0324055809
 C         -4.4922304399        0.6188389702        0.8017828299
 C         -4.3480820000        1.4727676091       -0.2283922609
 C         -5.3429016300        2.5297988287       -0.6095929319
 C         -6.3571703600        1.9943641976       -1.6300601214
 C         -6.9812771300        0.6555253280       -1.2363568900
 H         -7.7008555000        0.3907908272       -2.0141455297
 H         -6.2061445899       -0.1142574520       -1.2407804292
 C         -7.6828196299        0.6592830893        0.1290374600
 H         -8.6442812799        0.1509885792        0.0301137306
 H         -7.8891224699        1.6849667796        0.4368948490
 C         -6.9128345498       -0.0576123095        1.2396904607
 H         -7.5852996698       -0.1846367687        2.0922935209
 H         -6.6240232198       -1.0554815498        0.8999127417
 C         -5.6568292798        0.6593974911        1.7509358899
 H         -5.9033520699        1.6894667413        2.0161655789
 H         -5.3241496498        0.1417754220        2.6555323905
 H         -5.8489599701        1.8662833167       -2.5885688413
 H         -7.1434025501        2.7403508175       -1.7593048821
 H         -5.8588334500        2.8756250096        0.2839688877
 H         -4.8017354901        3.3671040683       -1.0532665128
 O         -3.2908474700        1.4381723983       -1.0790189209
 C         -2.2926096299        0.4849443085       -0.9417614800
 O         -1.3927699900        0.5557669077       -1.7996561901
 H          1.0708313902       -1.7931954815       -1.1043799779
 C          1.1395387502       -1.0740325607       -0.3030101486
 C          0.0289846402       -0.7980229000        0.4773682112
 C          0.1572960902        0.1296891211        1.5085480702
 C          1.3576641402        0.7731286014        1.7363871295
 C          2.4602359801        0.5067142606        0.9424909497
 C          2.3481519201       -0.4246558304       -0.0791069293
 N          3.4608431301       -0.6981215312       -0.8907995991
 S          4.9369988802       -1.0214142704       -0.1633460788
 O          5.6586012702       -1.8328677413       -1.1191462080
 O          4.7632148002       -1.5839021391        1.1556091418
 C          5.7222912001        0.5724629898       -0.0497114405
 C          5.9128895200        1.2894502186       -1.2145908912
 C          6.5322895500        2.5269596487       -1.1448808625
 C          6.9503693900        3.0229111800        0.0811142570
 C          6.7548202501        2.2893897311        1.2412357378
 C          6.1352657901        1.0509010910        1.1781998190
 H          5.9598289402        0.4469022519        2.0543336997
 H          7.0815310401        2.6763478621        2.1931039374
 H          7.4323849899        3.9864554700        0.1323534960
 H          6.6867202899        3.1000620978       -2.0449767830
 H          5.5779823100        0.8675875277       -2.1475537808
 H          3.2725324401       -1.3481918919       -1.6397766384
 H          3.3985713101        1.0094082708        1.1105456792
 H          1.4374530802        1.4924014122        2.5374913888
 H         -0.7037144398        0.3401761417        2.1285447601
 C         -1.3051822798       -1.4718420502        0.2729150619
 H         -1.5565132597       -2.0124949893        1.1975791825
 C         -1.3332557598       -2.4488915514       -0.8833750771
 C         -0.7990432197       -3.8385359712       -0.7094117657
 C         -2.2756813597       -3.6121136114       -0.8272706959
 H         -2.7741285998       -3.9166860923       -1.7353371556
 H         -2.8826449097       -3.7166690405        0.0601209242
 H         -0.2850098397       -4.3028204720       -1.5379059853
 H         -0.4009583797       -4.1033391102        0.2586405545
 H         -1.1975206999       -1.9632893424       -1.8435684376
 O         -3.5574238997       -1.2041822086        2.0041778517
