  62
        -98.94257674
 C          1.2165841508        1.6186540061        0.1928043872
 C          1.5990416514        0.6300848525        1.1277752243
 C          2.8552022080       -0.0912123178        0.8609877553
 C          3.5627256356        0.2088820044       -0.2443904481
 C          4.8913793024       -0.3089028828       -0.7564375680
 C          5.5623216080       -1.5109113297       -0.0989702832
 C          4.8577181428       -2.8462567319       -0.3481984116
 H          5.0452947021       -3.1454626583       -1.3825253769
 H          5.3041737407       -3.6014357481        0.3020094620
 C          3.3444249125       -2.8468810163       -0.1452443492
 H          2.9614684895       -3.8285107929       -0.4382629302
 H          2.8769763875       -2.1201100848       -0.8131364871
 C          2.8663217112       -2.5789851390        1.2793135383
 H          3.2813573454       -3.3291572753        1.9562776715
 H          1.7776181030       -2.6915928976        1.2750111580
 C          3.1962075473       -1.1843503618        1.8324282283
 H          2.5723946226       -1.0163313126        2.7156232765
 H          4.2344983186       -1.1235473185        2.1485253436
 H          5.6886655695       -1.3308987643        0.9646539614
 H          6.5653855291       -1.5837733819       -0.5277766120
 H          5.5768950848        0.5441166456       -0.7024452195
 H          4.7444365003       -0.5169597336       -1.8212242084
 O          3.1442566188        1.1624889937       -1.1286808767
 C          1.9564558794        1.8561353621       -0.9629948784
 O          1.6877441840        2.6398909426       -1.8933109699
 O          0.9165600559        0.3605486218        2.1540088234
 C         -0.0934676651        2.3547995509        0.4001002756
 C         -1.1081861513        1.9106221965       -0.6264670387
 C         -2.0017477754        2.7715697825       -1.2510707576
 C         -2.9267604100        2.2805459983       -2.1568905765
 C         -3.0037648151        0.9280357397       -2.4365074703
 C         -2.1173250243        0.0578801267       -1.8120751586
 C         -1.1766038206        0.5571860649       -0.9269573391
 H         -0.4757543401       -0.1261233112       -0.4737025950
 N         -2.1564614577       -1.3248306212       -2.0475179020
 S         -1.8676891332       -2.3696972439       -0.7699203104
 O         -0.4586239620       -2.4358007708       -0.4795201021
 O         -2.4818096677       -3.6136151835       -1.1864633368
 C         -2.7847086348       -1.6762705153        0.5944962769
 C         -2.1443786483       -1.0605621543        1.6498130306
 C         -2.9124708650       -0.4887912394        2.6531243339
 C         -4.2953026477       -0.5412177530        2.5866134621
 C         -4.9237125025       -1.1720431750        1.5231058713
 C         -4.1632851660       -1.7425130252        0.5166976197
 H         -4.6127562431       -2.2521572805       -0.3201793757
 H         -5.9997061077       -1.2172324807        1.4750547469
 H         -4.8852113518       -0.0903486227        3.3689956840
 H         -2.4148340772       -0.0009957429        3.4762829683
 H         -1.0665294946       -1.0198770736        1.6847643310
 H         -2.9242842709       -1.6382337687       -2.6227058270
 H         -3.7332033847        0.5480646517       -3.1351131283
 H         -3.6074495167        2.9615430289       -2.6446305422
 H         -1.9692215423        3.8267537256       -1.0351622088
 H         -0.4587351859        2.0209259728        1.3839420192
 C          0.1149337484        3.8531640739        0.4431976321
 C         -0.7880121320        4.7157419583        1.2723095743
 C          0.6251181439        4.4751330809        1.7077341515
 H          1.3363491361        5.2839103819        1.6333456384
 H          0.7984560294        3.8191755661        2.5484668736
 H         -1.0475815661        5.6958230347        0.9015027114
 H         -1.5767471262        4.2281542801        1.8249455187
 H          0.4879286880        4.2495278757       -0.4940251808
