  62
        -98.94938962
 C          1.3332423621        1.6077504977        0.2601985605
 C          1.6185290893        0.6338565987        1.2470221582
 C          2.8108049047       -0.1901773550        1.0184632049
 C          3.5526361199        0.0210738498       -0.0836964288
 C          4.7754970241       -0.7637680790       -0.4588871172
 C          4.4259959354       -1.9474035399       -1.3705897478
 C          3.2780131324       -2.8161716444       -0.8549228236
 H          2.3421224617       -2.2524812273       -0.8908180860
 H          3.1651460717       -3.6511993109       -1.5506358701
 C          3.4776332470       -3.3623934001        0.5655362709
 H          3.1800525467       -4.4130856842        0.5766319156
 H          4.5333487768       -3.3189853609        0.8381039148
 C          2.6412248718       -2.6541982504        1.6331889554
 H          1.6067187412       -2.5844758423        1.2845493997
 H          2.6444540391       -3.2722813024        2.5354519088
 C          3.1225193977       -1.2528211622        2.0333792957
 H          2.5910075557       -0.9644960508        2.9451386050
 H          4.1920726648       -1.2794384434        2.2531885024
 H          4.1440219386       -1.5582843015       -2.3517925349
 H          5.3200719174       -2.5622765803       -1.4927480182
 H          5.4586718959       -0.0989654175       -0.9908028871
 H          5.2626877973       -1.1208870985        0.4463724577
 O          3.2490234521        0.9645410702       -1.0111423424
 C          2.1105842315        1.7493812556       -0.8887026895
 O          1.9164123017        2.5214270545       -1.8470105718
 O          0.9027364833        0.4604045689        2.2713216174
 C          0.0702828126        2.4370065610        0.4011950258
 C         -0.9426886113        2.0138452313       -0.6364351822
 C         -1.7939127676        2.8951297155       -1.2911827510
 C         -2.7149010518        2.4214323248       -2.2104554112
 C         -2.8277697994        1.0687986513       -2.4783196873
 C         -1.9842013914        0.1787477523       -1.8233577352
 C         -1.0521071870        0.6599174308       -0.9197180706
 H         -0.3849065154       -0.0387806554       -0.4411977467
 N         -2.0510155455       -1.2038583895       -2.0502352887
 S         -1.7842987298       -2.2558777358       -0.7750234721
 O         -0.3822995698       -2.3116198431       -0.4491346007
 O         -2.3769977245       -3.5010891159       -1.2163491199
 C         -2.7441199788       -1.5822035740        0.5695235262
 C         -4.1188921860       -1.6775129346        0.4581664608
 C         -4.9161621033       -1.1231201736        1.4446939303
 C         -4.3277065137       -0.4788005608        2.5229405676
 C         -2.9483986513       -0.3974592990        2.6236315162
 C         -2.1435051915       -0.9530691217        1.6401086704
 H         -1.0681009614       -0.8900851723        1.7043237009
 H         -2.4814970495        0.1000618924        3.4588463533
 H         -4.9461068389       -0.0405712615        3.2903073512
 H         -5.9894727935       -1.1910290585        1.3698571711
 H         -4.5359238904       -2.1979140951       -0.3887642171
 H         -2.8122656046       -1.5074768649       -2.6389203574
 H         -3.5508615292        0.7045119695       -3.1916655336
 H         -3.3626132291        3.1174323059       -2.7214461039
 H         -1.7307897665        3.9516938291       -1.0885729915
 H         -0.3407477086        2.1701076445        1.3875368347
 C          0.3717940537        3.9199963938        0.3872414033
 C         -0.4790704750        4.8699685305        1.1748032350
 C          0.9135452441        4.5578402340        1.6305313647
 H          1.6753448279        5.3161922830        1.5303815597
 H          1.0400535759        3.9256171426        2.4974284213
 H         -0.6737919192        5.8490918348        0.7639056625
 H         -1.2997874352        4.4558392672        1.7406789095
 H          0.7741087910        4.2548748185       -0.5616602961
