  62
        -98.94530842
 C          2.1382160288        0.8901289844        0.0724238045
 C          2.8499786848        0.2167252758        1.0929340859
 C          3.5765904738       -0.9915730549        0.6811784352
 C          3.4885589547       -1.4079146301       -0.5955486112
 C          4.2153583147       -2.5925391506       -1.1619264976
 C          5.5779718750       -2.1839069060       -1.7393025881
 C          6.4174706533       -1.3254475996       -0.7931033062
 H          7.3668378291       -1.1239261066       -1.2937667465
 H          5.9195658631       -0.3639333767       -0.6486173851
 C          6.6869343475       -1.9668691736        0.5752516531
 H          6.5059840630       -3.0410819550        0.5230170934
 H          7.7405176006       -1.8272927950        0.8259329621
 C          5.8733409168       -1.3716159070        1.7258307377
 H          6.2931458808       -1.7400743517        2.6655447119
 H          5.9786103119       -0.2838380888        1.7243001745
 C          4.3772975012       -1.7105452497        1.7305549597
 H          3.9668050291       -1.3892022713        2.6924888702
 H          4.2438401986       -2.7910407264        1.6447775215
 H          6.1284983251       -3.0904239055       -1.9972107571
 H          5.4078796693       -1.6164798674       -2.6571764346
 H          3.6048875382       -3.0203096725       -1.9591917045
 H          4.3486278330       -3.3386477887       -0.3807765329
 O          2.7542541942       -0.7622251564       -1.5374798616
 C          2.0679116879        0.4053028857       -1.2339648372
 O          1.4477748363        0.9008130156       -2.1930382646
 O          2.8706173012        0.6041246705        2.2931406796
 C          1.3793432429        2.1589239422        0.4188813238
 C         -0.0938318856        1.9589904164        0.1603637218
 C         -0.8730479562        2.8376132240       -0.5796253288
 C         -2.2147370340        2.5720510250       -0.7949482146
 C         -2.8089181537        1.4383081740       -0.2727787859
 C         -2.0402991037        0.5561009153        0.4758085637
 C         -0.6979575074        0.8245638659        0.6895855233
 H         -0.0984775692        0.1321359717        1.2688898122
 N         -2.6376096811       -0.5935040393        1.0261530007
 S         -3.4880373552       -1.6045947837       -0.0130175742
 O         -3.4555586336       -2.9054245988        0.6208029408
 O         -2.9786286675       -1.5341326183       -1.3631464931
 C         -5.1514047001       -0.9722438193        0.0512863264
 C         -5.7646405723       -0.8778301122        1.2853809453
 C         -7.0612157205       -0.3936040761        1.3523292657
 C         -7.7199239466       -0.0176767519        0.1909411903
 C         -7.0916464586       -0.1220922525       -1.0405866117
 C         -5.7939735008       -0.6045188685       -1.1145632321
 H         -5.2623670067       -0.6979277669       -2.0483093137
 H         -7.6050719921        0.1700147580       -1.9425533715
 H         -8.7289963408        0.3591645229        0.2458660524
 H         -7.5530641301       -0.3107937947        2.3080883637
 H         -5.2186732486       -1.1841840304        2.1619364140
 H         -2.0058957483       -1.1369250164        1.5973127741
 H         -3.8515812733        1.2261077895       -0.4439453846
 H         -2.8063592960        3.2591258015       -1.3804029283
 H         -0.4282626086        3.7245611292       -0.9994660214
 H          1.5200487067        2.2963694299        1.5015043027
 C          1.9724735079        3.3490442859       -0.3044771079
 C          1.8584869874        4.7222293909        0.2849800846
 C          3.1811406413        4.0184006392        0.2755959290
 H          3.9497276327        4.3680689179       -0.3972782070
 H          3.5626379457        3.6301206340        1.2088271498
 H          1.7208507396        5.5598056481       -0.3818702970
 H          1.3434093428        4.8190359159        1.2285619613
 H          1.9270623413        3.2455455459       -1.3828044581
