  62
        -98.93887868
 C          0.9490802012        1.4344507602       -0.7964202084
 C          2.2490345110        1.5761273296       -0.2470316578
 C          3.1752778010        0.4555107297       -0.4450233185
 C          2.7639413411       -0.6302143997       -1.1233347496
 C          3.5845220711       -1.8485761795       -1.4554065104
 C          4.0318830606       -2.7081377706       -0.2573705810
 C          5.4308121404       -2.3705275712        0.2736244797
 H          6.0067243207       -1.9052029306       -0.5273191097
 H          5.9425755702       -3.3006723615        0.5290059191
 C          5.4768694901       -1.4800942623        1.5189414105
 H          6.5013650601       -1.1193514826        1.6341751012
 H          5.2394962497       -2.0838853431        2.3979526699
 C          4.5274807702       -0.2814725822        1.5200172613
 H          4.7994672600        0.3677768470        2.3549439020
 H          3.5063263401       -0.6205761223        1.7156319707
 C          4.5211799007        0.5371732089        0.2142127120
 H          5.3024956509        0.1915032395       -0.4611355780
 H          4.6967283408        1.5917948887        0.4360738930
 H          4.0380362206       -3.7457516403       -0.5958027220
 H          3.2898140203       -2.6340290712        0.5383231588
 H          4.4625136113       -1.5364206790       -2.0256997698
 H          2.9563451112       -2.4532821688       -2.1126066912
 O          1.5135840412       -0.7268306591       -1.6446959701
 C          0.5683631213        0.2757953009       -1.4742922795
 O         -0.5338542786        0.0021513315       -1.9880006602
 O          2.6240389709        2.6081106490        0.3738516433
 C         -0.0200945388        2.5756851301       -0.5346509677
 C         -0.8025859792        2.2961511391        0.7269943618
 C         -0.8232003395        3.2014635981        1.7811038726
 C         -1.5060085699        2.9051434971        2.9478187721
 C         -2.1545493701        1.6922570871        3.0952450108
 C         -2.1388283498        0.7810731380        2.0452692700
 C         -1.4936994994        1.1007289390        0.8611009105
 H         -1.4950963392        0.3903805897        0.0505908699
 N         -2.7688000000       -0.4675253420        2.1517989587
 S         -2.0464515399       -1.8035743514        1.4397247277
 O         -2.5819988803       -2.9312724921        2.1788502765
 O         -0.6046560699       -1.6948815016        1.4376625083
 C         -2.7020376994       -1.8651201499       -0.2119537226
 C         -3.9597777692       -1.3532582995       -0.4602760125
 C         -4.4821147688       -1.4581070883       -1.7388825828
 C         -3.7465093285       -2.0762821075       -2.7382357831
 C         -2.4884937887       -2.5902027779       -2.4699394131
 C         -1.9579263191       -2.4842085291       -1.1945749829
 H         -0.9734831192       -2.8521005194       -0.9508543629
 H         -1.9110417185       -3.0612990372       -3.2491507234
 H         -4.1530090882       -2.1536129766       -3.7345224133
 H         -5.4586702987       -1.0540106880       -1.9529830828
 H         -4.5008121094       -0.8728904302        0.3380947377
 H         -3.1455230103       -0.6850979628        3.0630792783
 H         -2.6613726604        1.4464135263        4.0160209904
 H         -1.5149719601        3.6161093264        3.7599974828
 H         -0.2814619594        4.1313215781        1.6909462336
 H          0.6100546413        3.4563661999       -0.3485130767
 C         -0.9528621984        2.8854114012       -1.6879010277
 C         -1.5542828782        4.2541121014       -1.7885320067
 C         -0.5025134979        3.8235354222       -2.7655379367
 H         -0.7933167276        3.6129297031       -3.7834665270
 H          0.4851363421        4.2518582020       -2.6742008160
 H         -2.5721669280        4.3430143918       -2.1350666169
 H         -1.2798605583        4.9791555107       -1.0374604059
 H         -1.5620325683        2.0421139016       -1.9849320387
