  62
        -98.94392862
 C         -1.6031820103       -1.4210308498       -0.2192596322
 C         -2.7446904521       -0.8809781489        0.4098883418
 C         -3.2644224707        0.3912386038       -0.1262763897
 C         -2.6313322072        0.9602800653       -1.1693898450
 C         -2.9377336303        2.2719403923       -1.8419516905
 C         -2.4519302207        3.4741775814       -1.0177709746
 C         -2.7858013338        3.4075705378        0.4698950696
 H         -2.3196247721        2.5160886259        0.8950274623
 H         -2.3134221644        4.2680434874        0.9522825687
 C         -4.2741100885        3.4350900134        0.8116785022
 H         -4.3525614223        3.4791057212        1.9010380852
 H         -4.7143056265        4.3506776616        0.4100983970
 C         -5.1018195400        2.2431100165        0.3249788483
 H         -5.3343512757        2.3316478423       -0.7328149269
 H         -6.0574333176        2.2733914852        0.8567423026
 C         -4.4859529378        0.8784505924        0.6156477052
 H         -5.2523830140        0.1094006869        0.4586965661
 H         -4.2334418835        0.8197494265        1.6808146629
 H         -2.8716701879        4.3843578245       -1.4505286338
 H         -1.3629358880        3.5237375005       -1.1013357493
 H         -2.4049490629        2.2679724917       -2.7955376181
 H         -3.9999562472        2.3501625908       -2.0536023988
 O         -1.5388696640        0.3947244394       -1.7550633487
 C         -0.9822046673       -0.7771403406       -1.2874430009
 O          0.0379255818       -1.1486348645       -1.9015548401
 O         -3.3086379180       -1.4319459424        1.3966367434
 C         -0.9801687570       -2.6928772831        0.3251058289
 C          0.4604224103       -2.4367475863        0.6947340333
 C          1.4867689546       -3.3409366990        0.4506036078
 C          2.7932423032       -3.0290115123        0.7867374737
 C          3.1079832534       -1.8043580966        1.3467270498
 C          2.0863885735       -0.8980946386        1.6044607740
 C          0.7756869223       -1.2317405924        1.3097361611
 H         -0.0045252628       -0.5150162807        1.5212952940
 N          2.3456700654        0.3827447126        2.1397913326
 S          2.0288987120        1.6747770678        1.1139760821
 O          2.4356185632        2.8514045972        1.8533801999
 O          0.6575063523        1.6356128602        0.6811381239
 C          3.1539213441        1.4164164123       -0.2463434199
 C          2.8257258855        0.5176278246       -1.2412493679
 C          3.7563318580        0.2619589635       -2.2378125216
 C          4.9869501228        0.8993564744       -2.2221582214
 C          5.2993928993        1.8005437269       -1.2150056244
 C          4.3780824981        2.0577748641       -0.2134668466
 H          4.5741409541        2.7508497692        0.5889000196
 H          6.2557155944        2.2981943468       -1.2054550438
 H          5.7050088861        0.6928480713       -3.0000896316
 H          3.5041953759       -0.4395531786       -3.0168648773
 H          1.8603543147        0.0345839963       -1.2420913044
 H          3.2818917509        0.4835821458        2.5092986949
 H          4.1305035456       -1.5477255626        1.5798628067
 H          3.5795261554       -3.7413655861        0.5892262083
 H          1.2643596217       -4.2888658302       -0.0115898110
 H         -1.5407424113       -2.9267388414        1.2429604262
 C         -1.1539951683       -3.8329739476       -0.6572888509
 C         -1.2956419402       -5.2426377902       -0.1676902078
 C         -2.4816990072       -4.5232850587       -0.7338029733
 H         -2.8543303518       -4.8193495964       -1.7028839699
 H         -3.2516737574       -4.1872057035       -0.0546234596
 H         -0.8558421802       -6.0377211758       -0.7507088212
 H         -1.2668769957       -5.4070858674        0.8988465102
 H         -0.6242949351       -3.6616896094       -1.5878644951
