  62
        -98.93353811
 C         -1.9911014849       -0.5954807466       -0.5615485437
 C         -3.1237401158       -1.2529155157       -0.0156907301
 C         -4.3903358356       -0.5107141614       -0.0459362450
 C         -4.4182539474        0.7316120082       -0.5596473661
 C         -5.6276318360        1.6149387621       -0.7180599334
 C         -6.3064368785        2.0822731685        0.5839185687
 C         -7.4707458718        1.1962472918        1.0441526385
 H         -8.2709038439        1.8367003073        1.4208401780
 H         -7.8738493537        0.6686796701        0.1787593701
 C         -7.1462552241        0.1890784453        2.1516250783
 H         -7.9691554245       -0.5271447395        2.2036906796
 H         -7.1060159533        0.7131631012        3.1092915389
 C         -5.8325731405       -0.5766229600        1.9933383947
 H         -5.8194673973       -1.3864689812        2.7254831707
 H         -4.9939291616        0.0779495859        2.2427962136
 C         -5.5903906343       -1.1543965777        0.5853967847
 H         -5.3727231844       -2.2221206164        0.6541931046
 H         -6.4708346060       -1.0223169528       -0.0417712278
 H         -5.5591635900        2.1712206152        1.3721145345
 H         -6.6956611536        3.0839618780        0.3944274900
 H         -5.2773670869        2.4895820915       -1.2701306792
 H         -6.3599219456        1.0977433427       -1.3424331475
 O         -3.3051419405        1.3383877036       -1.0513988683
 C         -2.0653685765        0.7085695379       -1.0541499035
 O         -1.1510483380        1.4131859355       -1.5193498694
 O         -3.0786590411       -2.4135096989        0.4717210146
 C         -0.6701863238       -1.3447923183       -0.5255018376
 C          0.4029032577       -0.4727220950        0.0728783373
 C          0.3869670271       -0.2275725386        1.4429600105
 C          1.3370396220        0.5883628713        2.0274686040
 C          2.3252947432        1.1760580172        1.2578131146
 C          2.3504396738        0.9364562069       -0.1095747709
 C          1.4014884230        0.1070894703       -0.6932732936
 H          1.4189682815       -0.0522877122       -1.7599955678
 N          3.3537869266        1.5279212583       -0.8935049143
 S          4.9259493686        1.4827971110       -0.3312021199
 O          5.1314346347        2.5276836469        0.6410314595
 O          5.7560436604        1.5507378652       -1.5135620440
 C          5.0842645959       -0.1117337331        0.4550892750
 C          4.8888206690       -1.2389029233       -0.3185609577
 C          4.9640224472       -2.4851715561        0.2810821204
 C          5.2316268963       -2.5830313658        1.6381928878
 C          5.4312560371       -1.4426287032        2.3999763690
 C          5.3550886377       -0.1930549536        1.8054559200
 H          5.5002395948        0.7188716414        2.3613203988
 H          5.6419379235       -1.5219364095        3.4542985919
 H          5.2859844417       -3.5546847444        2.1032309399
 H          4.8112083123       -3.3741270039       -0.3096375067
 H          4.6890249822       -1.1281084356       -1.3722322991
 H          3.2939701045        1.3115220124       -1.8768624961
 H          3.0644853893        1.8298258515        1.6916593963
 H          1.3078380734        0.7728677632        3.0906207998
 H         -0.3905036974       -0.6785697372        2.0442757327
 H         -0.8556594998       -2.1792209024        0.1703100553
 C         -0.2619917332       -1.9743673609       -1.8489769482
 C         -1.2956152135       -2.5339035334       -2.7789046795
 C         -0.5061221201       -1.3246726408       -3.1768602798
 H          0.2451933842       -1.4365250109       -3.9456489304
 H         -0.9992533683       -0.3654488844       -3.1884456416
 H         -1.0911133474       -3.4704946416       -3.2752814416
 H         -2.3328919245       -2.3991096305       -2.5088341250
 H          0.6568729530       -2.5450410583       -1.7520391587
