  62
        -98.93951935
 C         -2.6418398525       -1.2749902585       -0.0055428568
 C         -2.7117304179       -0.2184802089       -0.9451460012
 C         -4.0355842234        0.3975373360       -1.1151078787
 C         -5.0790627040       -0.0738369295       -0.4084993277
 C         -6.4652285805        0.5004591487       -0.4399137530
 C         -6.6454354732        1.5721253164        0.6445390687
 C         -5.5295487601        2.6168241842        0.6733342644
 H         -5.7780185124        3.3363782397        1.4566057525
 H         -4.5945220292        2.1339088687        0.9672949327
 C         -5.3192805955        3.3584992013       -0.6541310452
 H         -6.1993562129        3.2409090399       -1.2874362782
 H         -5.2098256950        4.4248026911       -0.4454482956
 C         -4.0744665552        2.9267180365       -1.4316368946
 H         -3.2025258386        2.9514197335       -0.7725418741
 H         -3.9020078104        3.6548431976       -2.2287379003
 C         -4.1446537177        1.5404705392       -2.0845151345
 H         -5.0568743930        1.4586620660       -2.6788090744
 H         -3.2856948245        1.4460699859       -2.7552520480
 H         -7.6051016891        2.0670262335        0.4849217245
 H         -6.6758251774        1.0776625437        1.6182842956
 H         -6.6538664830        0.9277082855       -1.4227285106
 H         -7.1768954167       -0.3072982678       -0.2613855282
 O         -4.9768577094       -1.1086077031        0.4649783971
 C         -3.7572690432       -1.7211547116        0.7022744017
 O         -3.7953149886       -2.6349536018        1.5515234232
 H          1.2243603193       -1.3419599448       -0.6553816531
 C          0.9238248705       -0.7312160780        0.1815897335
 C         -0.3214217769       -0.9157348787        0.7588508550
 C         -0.6757779450       -0.1177774711        1.8440232399
 C          0.1853699746        0.8508554586        2.3209031753
 C          1.4191654032        1.0491921987        1.7256941304
 C          1.7874894322        0.2531244478        0.6506801281
 N          3.0288277158        0.4590574558        0.0227779870
 S          4.3787244364        0.7266970380        1.0002596620
 O          4.4454033721       -0.2758140226        2.0408162947
 O          4.3608616656        2.0965482453        1.4480786490
 C          5.6943873185        0.4941194535       -0.1783771340
 C          6.0215800928        1.5410342430       -1.0191683603
 C          7.0260947988        1.3580824672       -1.9559728852
 C          7.6819984638        0.1384983406       -2.0365533838
 C          7.3430421337       -0.9023944468       -1.1852203560
 C          6.3384014163       -0.7266571684       -0.2465610527
 H          6.0479510117       -1.5048764174        0.4409725481
 H          7.8568426349       -1.8480903454       -1.2487946465
 H          8.4644886988       -0.0008164068       -2.7656702645
 H          7.2942731859        2.1653501010       -2.6182745130
 H          5.4905264659        2.4726880547       -0.9144901320
 H          3.2213934796       -0.2429751447       -0.6786961508
 H          2.0988545124        1.8047250046        2.0850701002
 H         -0.1055333572        1.4625282854        3.1622496837
 H         -1.6423086423       -0.2678221557        2.3072855570
 C         -1.3100480043       -1.9489435329        0.2737599348
 H         -1.4926334080       -2.6562317648        1.0958526804
 C         -0.8488478695       -2.7238751828       -0.9423870303
 C          0.0647989937       -3.9011250855       -0.7838789369
 C         -1.3719022458       -4.1114586163       -1.1545690352
 H         -1.6057590901       -4.4260944312       -2.1605253310
 H         -2.0438096448       -4.5070173473       -0.4066931767
 H          0.3736918924       -4.1629655983        0.2169912624
 H          0.8165507452       -4.0773881902       -1.5385448764
 H         -0.7317585976       -2.0951776217       -1.8175297290
 O         -1.7234418901        0.1902118941       -1.6084603873
