  62
        -98.93771882
 C          1.9401064301        0.9457573007        0.0073672598
 C          2.4295802003       -0.3722279392        0.1615228301
 C          3.8524273403       -0.4981224888        0.5263999901
 C          4.5915124701        0.6104404014        0.7026392198
 C          6.0399404301        0.7191689917        1.1094597697
 C          7.0345150003       -0.2509087683        0.4571131899
 C          6.7030227603       -0.6470364787       -0.9890283000
 H          5.9124447802       -0.0054390990       -1.3818455001
 H          7.5868747503       -0.4926284087       -1.6107741600
 C          6.2840777606       -2.1129094588       -1.1250450595
 H          6.4220832106       -2.4232608491       -2.1636513995
 H          6.9476971907       -2.7253016885       -0.5106275194
 C          4.8340156206       -2.4182790990       -0.7510461394
 H          4.7005343408       -3.5025739390       -0.7774469291
 H          4.1602567005       -1.9959070593       -1.5016509295
 C          4.3811261806       -1.9001808387        0.6238273905
 H          3.5398027907       -2.5160094288        0.9538355207
 H          5.1793367407       -1.9805986683        1.3577589305
 H          7.1138731105       -1.1531262881        1.0619117702
 H          8.0119950302        0.2334311719        0.4864342197
 H          6.0965976002        0.6115805020        2.1965537297
 H          6.3238028899        1.7474658717        0.8731156294
 O          4.0715801399        1.8626051112        0.5570507395
 C          2.7486954399        2.0635252609        0.2057204795
 O          2.4169167396        3.2624506408        0.1081213792
 O          1.7173844305       -1.3988769494        0.0117548005
 C          0.4930571400        1.1814557003       -0.3892487002
 C         -0.4249616098        0.5396985204        0.6219022100
 C         -0.2831356199        0.8915984408        1.9626359099
 C         -1.0818425997        0.3183068109        2.9318481201
 C         -2.0482955395       -0.6099671893        2.5842218804
 C         -2.2020549795       -0.9650024397        1.2500436905
 C         -1.3970261597       -0.3850047598        0.2771219503
 H         -1.5257978697       -0.6956877202       -0.7453658196
 N         -3.1593103594       -1.9215421300        0.8781724608
 S         -4.1256345895       -1.7148776806       -0.4676802392
 O         -5.1639283193       -2.7104600107       -0.3198027889
 O         -3.3400902295       -1.7856034507       -1.6723177792
 C         -4.8219253198       -0.0848600306       -0.2717665396
 C         -4.2108216900        0.9975262093       -0.8712577999
 C         -4.7324545702        2.2635186893       -0.6552301603
 C         -5.8483198002        2.4245252993        0.1512826997
 C         -6.4530226700        1.3260054793        0.7436531701
 C         -5.9338827898        0.0588090794        0.5354970804
 H         -6.3794278796       -0.8225573006        0.9675952606
 H         -7.3239316000        1.4540917394        1.3660818101
 H         -6.2503352804        3.4118198693        0.3155547995
 H         -4.2645931904        3.1184690592       -1.1169325205
 H         -3.3488934000        0.8340403693       -1.4964946799
 H         -3.6935923893       -2.2979173899        1.6473694309
 H         -2.6678769094       -1.0663430092        3.3411836906
 H         -0.9540736197        0.5958043312        3.9673360800
 H          0.4749053500        1.6147833910        2.2324819597
 H          0.3432276898        2.2701264103       -0.3454071605
 C          0.2606920300        0.7162321199       -1.8110764301
 C         -0.7821991801        1.3781607895       -2.6586938202
 C          0.6714846298        1.6073092797       -2.9430008303
 H          1.1052617599        1.1566205395       -3.8231046202
 H          1.0975814996        2.5671095398       -2.6883257306
 H         -1.3525835501        0.7683444392       -3.3440972200
 H         -1.3372437203        2.1930633695       -2.2184211904
 H          0.4201591102       -0.3488533801       -1.9371766898
