  62
        -98.93550107
 C         -1.0644075099       -1.3415677810       -0.1189821300
 C         -1.7328061306       -0.4743581614        0.7785601098
 C         -2.6935322010        0.4627162781        0.1811663896
 C         -2.8873981907        0.4560075680       -1.1496202005
 C         -3.7902915810        1.3729025475       -1.9322980607
 C         -5.3001454410        1.2405694166       -1.6539892410
 C         -5.8376706018        2.2200223163       -0.6031257211
 H         -5.1768731623        3.0867744467       -0.5601603510
 H         -6.8123138919        2.5865916157       -0.9317893414
 C         -6.0271108118        1.6498844262        0.8059102088
 H         -6.9422548714        1.0536970957        0.8287605586
 H         -6.1662401224        2.4899642861        1.4898707888
 C         -4.8929366214        0.7676307868        1.3281915891
 H         -5.0576275816        0.5985809268        2.3941202190
 H         -4.9413349807       -0.2133576932        0.8495628491
 C         -3.4787507317        1.3404974677        1.1116251794
 H         -3.5319789322        2.3583839776        0.7283588294
 H         -2.9355847119        1.3529354680        2.0582034395
 H         -5.5291704805        0.2133883765       -1.3711875311
 H         -5.8135363409        1.4372298563       -2.5966177211
 H         -3.4796314816        2.4057729476       -1.7580819906
 H         -3.6004629006        1.1411919876       -2.9825028406
 O         -2.2239763000       -0.3955198016       -1.9801310903
 C         -1.3039330296       -1.3158713311       -1.4931318701
 O         -0.7745569990       -2.0200957108       -2.3736161600
 H          0.8935178296       -0.1168973399       -0.8832456396
 C          1.6809945600       -0.8178306394       -0.6374583294
 C          1.3682018005       -1.9978577196        0.0186589205
 C          2.4099084809       -2.8692978590        0.3260425208
 C          3.7164939408       -2.5615086682       -0.0076905689
 C          4.0199865203       -1.3808541981       -0.6646081889
 C          2.9883041099       -0.5156118887       -0.9905128491
 N          3.2888153293        0.7111296215       -1.6394137190
 S          3.7993114984        1.8951840418       -0.5657814789
 O          3.8041934679        3.1357822818       -1.3075089889
 O          5.0566854085        1.4796327425       -0.0001204686
 C          2.5365919381        1.9254614211        0.6930739708
 C          2.6640353283        1.0988938612        1.7911903508
 C          1.6307349681        1.0472141106        2.7123285506
 C          0.4901008677        1.8099559099        2.5173020703
 C          0.3753196075        2.6308060599        1.4061130003
 C          1.4047801677        2.6869535704        0.4806377305
 H          1.3538128275        3.3139240504       -0.3959867695
 H         -0.5179460428        3.2156868893        1.2538500301
 H         -0.3197065424        1.7485998195        3.2261538801
 H          1.7081093583        0.4018516006        3.5721816406
 H          3.5643940286        0.5166432317        1.9036367510
 H          2.5018155092        1.0727445811       -2.1612423792
 H          5.0322496702       -1.1126568975       -0.9185927786
 H          4.5097513511       -3.2474858978        0.2465627613
 H          2.1907865713       -3.7937702191        0.8359210807
 C         -0.0475800394       -2.3076005104        0.4483105902
 H         -0.0969707098       -2.1661671104        1.5390144602
 C         -0.4212930185       -3.7450726206        0.1305847001
 C         -0.2603363482       -4.8256990405        1.1563725402
 C         -1.6291654184       -4.3410749813        0.7882462498
 H         -2.2714638779       -4.9826883017        0.2040028897
 H         -2.1593824089       -3.7240030216        1.4992688797
 H          0.1202689615       -4.5479933603        2.1278831002
 H          0.0417333125       -5.8078042303        0.8252548802
 H         -0.2477394682       -3.9990571705       -0.9087089298
 O         -1.5298537208       -0.4786775012        2.0206722499
