  62
        -98.93733872
 C         -1.9445530804       -1.3925456596        0.0140680502
 C         -2.6004442300       -0.6964391597        1.0561591304
 C         -3.8070345400        0.0495727805        0.6757524008
 C         -4.2127847303        0.0471344307       -0.6070001891
 C         -5.4479827104        0.7063162910       -1.1619460688
 C         -5.4878223102        2.2455588710       -1.1021255785
 C         -6.1920408998        2.8124988809        0.1368734117
 H         -6.7888732598        3.6761558210       -0.1633044081
 H         -6.8908201598        2.0657590509        0.5159311417
 C         -5.2748235795        3.2772451606        1.2721034816
 H         -4.8507659194        4.2500681706        1.0125405216
 H         -5.8896923393        3.4147011105        2.1641699417
 C         -4.1103124295        2.3470015104        1.6123031412
 H         -3.6631075593        2.6893889202        2.5478728111
 H         -3.3340629097        2.4378719004        0.8481401510
 C         -4.4910618897        0.8589257604        1.7391254310
 H         -5.5710523097        0.7322849606        1.6823551413
 H         -4.1479492595        0.4678181303        2.6990694509
 H         -6.0324899803        2.5814389511       -1.9859847484
 H         -4.4746881101        2.6396512008       -1.1801144687
 H         -5.5001639606        0.3899216111       -2.2057323888
 H         -6.3221532603        0.3018627810       -0.6465812786
 O         -3.5390383406       -0.6181130692       -1.5844382494
 C         -2.3856789306       -1.3380695194       -1.3083676697
 O         -1.8655318709       -1.8731299393       -2.3045192799
 O         -2.1969872898       -0.6992336599        2.2511854403
 C         -0.6902005204       -2.1858871798        0.3366659798
 C          0.4879119795       -1.5715289999       -0.3786217704
 C          1.3324852193       -2.2760706999       -1.2250221007
 C          2.3717956992       -1.6299452399       -1.8735303608
 C          2.6002272594       -0.2802831100       -1.6825062207
 C          1.7786426297        0.4278950900       -0.8131510204
 C          0.7374343197       -0.2200624699       -0.1674472303
 H          0.0922850600        0.3339995000        0.5032766200
 N          2.0152516999        1.7933107800       -0.5900031503
 S          3.5948388000        2.3198054597       -0.4364921505
 O          3.5178306403        3.5023170596        0.3927160596
 O          4.1740851097        2.5075601799       -1.7435913706
 C          4.4555383300        1.0110047495        0.4185570191
 C          3.9779316303        0.6087539394        1.6501457591
 C          4.6217969203       -0.4226928308        2.3139198588
 C          5.7276500101       -1.0302618008        1.7388145585
 C          6.1990594798       -0.6103083607        0.5049538885
 C          5.5573748298        0.4192751595       -0.1646918712
 H          5.8869523697        0.7743636596       -1.1276198613
 H          7.0602572197       -1.0828362508        0.0608815682
 H          6.2238492201       -1.8355166410        2.2569869783
 H          4.2559335004       -0.7501530509        3.2738925689
 H          3.1177292004        1.1023162494        2.0737284494
 H          1.4111133601        2.2127971299        0.1004294599
 H          3.3894469294        0.2396077600       -2.2008157608
 H          3.0103926690       -2.1856296699       -2.5428427810
 H          1.1688371991       -3.3275973598       -1.3912885808
 H         -0.5370409001       -2.0579430400        1.4183266398
 C         -0.8911489006       -3.6567543798        0.0439190596
 C         -0.0862141206       -4.6842793300        0.7802926893
 C         -1.5446698305       -4.5184938698        1.0810463296
 H         -2.2315312807       -5.2850821897        0.7550649697
 H         -1.8274320502       -4.0483640799        2.0117018498
 H          0.2288977992       -5.5699156699        0.2498203991
 H          0.6247154096       -4.3308498102        1.5114048592
 H         -1.1436147209       -3.8464772796       -0.9929451304
