  62
        -98.93730837
 C         -2.2801988076       -1.1134217296        0.0934753456
 C         -2.1847274688        0.0181559186       -0.7533888666
 C         -2.7613652480        1.2623183346       -0.2233379328
 C         -3.2723480553        1.2951949165        1.0195296061
 C         -3.8516551875        2.4992791021        1.7112846449
 C         -5.3203712158        2.7778240417        1.3628363353
 C         -5.5632884886        3.3280620348       -0.0430929959
 H         -6.5959611389        3.6808346322       -0.0746052305
 H         -4.9187330569        4.1916531470       -0.2096044062
 C         -5.3567570257        2.3039106246       -1.1676733636
 H         -6.1895023862        2.3632179726       -1.8719497236
 H         -5.3639321673        1.2957178922       -0.7469835213
 C         -4.0698466000        2.4955530963       -1.9699933333
 H         -4.0064998402        1.6967556626       -2.7132453960
 H         -4.1080068043        3.4486478418       -2.5019271365
 C         -2.7894018647        2.4594523723       -1.1255227892
 H         -1.9333254542        2.3856455675       -1.8007394723
 H         -2.6953001889        3.3755703126       -0.5427095274
 H         -5.6920871493        3.5080494543        2.0852888546
 H         -5.8913335157        1.8563550721        1.4980167240
 H         -3.7826102551        2.3021336545        2.7833625989
 H         -3.2473775282        3.3777505105        1.4820421835
 O         -3.2985873980        0.1992681200        1.8243907388
 C         -2.8228232306       -1.0213611963        1.3786051328
 O         -2.9374553247       -1.9463742844        2.2082754350
 H          0.2457079384       -0.8283016865       -0.9789368843
 C          0.5972564810       -1.6321806754       -0.3482142896
 C         -0.3010147524       -2.5996128534        0.0820503380
 C          0.1682658249       -3.6254094179        0.8926818793
 C          1.5010249920       -3.6753643952        1.2655211057
 C          2.3905261470       -2.7042454482        0.8411855181
 C          1.9291839087       -1.6760487153        0.0305888789
 N          2.8274013765       -0.6622353588       -0.3937784826
 S          3.2285849479        0.4330115573        0.8339381427
 O          3.7187588601       -0.3118795185        1.9651022021
 O          2.1166066892        1.3268865733        1.0876500584
 C          4.5677104013        1.3227018472        0.0657265769
 C          5.8034267980        0.7094115391       -0.0098308002
 C          6.8448007071        1.3769411838       -0.6339021817
 C          6.6337356067        2.6387688073       -1.1700512190
 C          5.3877213942        3.2410373900       -1.0862879951
 C          4.3412413636        2.5776350062       -0.4644729116
 H          3.3573242554        3.0090990113       -0.3708278798
 H          5.2263317305        4.2225723302       -1.5022408973
 H          7.4457151032        3.1572243997       -1.6549895515
 H          7.8155327277        0.9128354900       -0.7005099109
 H          5.9216023559       -0.2679746669        0.4272955850
 H          2.4144932168       -0.1206434864       -1.1445606801
 H          3.4235058075       -2.7175998975        1.1465266117
 H          1.8493818519       -4.4761334417        1.9000481246
 H         -0.5239099494       -4.3741366847        1.2499145647
 C         -1.7578762013       -2.4908261627       -0.2884641307
 H         -2.3145010208       -3.1966094837        0.3480227672
 C         -2.0454583608       -2.8594247292       -1.7377566931
 C         -0.9823077568       -3.0407270441       -2.7754108481
 C         -1.7063853981       -4.2340635608       -2.2340932639
 H         -2.4148643578       -4.7460983410       -2.8672321623
 H         -1.1646208379       -4.8815005707       -1.5608820386
 H          0.0466326968       -2.8960019463       -2.4860965466
 H         -1.2029447194       -2.7064119865       -3.7776425969
 H         -2.9831021937       -2.4363186320       -2.0831162244
 O         -1.6447736476        0.0177210526       -1.8904918409
