  62
        -98.94120222
 C          1.9519766515        0.8884087529       -0.2265578255
 C          2.5960315730        0.3145407639        0.9005172409
 C          2.9223014850       -1.1109589798        0.8152205038
 C          2.5627702969       -1.8077487272       -0.2774283255
 C          2.7868233802       -3.2785870708       -0.5044445229
 C          4.1814513680       -3.6229646483       -1.0456693819
 C          5.3217470334       -3.4895797733       -0.0354023066
 H          5.0696307327       -4.0444925672        0.8686590926
 H          6.1985808669       -3.9663015238       -0.4778308396
 C          5.6779891250       -2.0417495636        0.3297097539
 H          5.2553859882       -1.3640051566       -0.4155756933
 H          6.7623807483       -1.9145623356        0.2996717181
 C          5.2082770933       -1.6042073321        1.7171018994
 H          5.7224163590       -2.1921927501        2.4804450156
 H          5.4823204253       -0.5556029544        1.8570121504
 C          3.6954047299       -1.7307637753        1.9402943063
 H          3.4178451417       -2.7780022556        2.0590416679
 H          3.4357926351       -1.1932591767        2.8555054066
 H          4.3846423715       -2.9895313410       -1.9122291253
 H          4.1491681480       -4.6588001742       -1.3912075004
 H          2.6094061006       -3.8215189573        0.4245445667
 H          2.0415143351       -3.5944010600       -1.2379649684
 O          1.9208696412       -1.2334260508       -1.3271853910
 C          1.6053335328        0.1200449678       -1.3386772397
 O          1.0431665459        0.4826254749       -2.3915776401
 H         -0.7304975480        1.1553069279       -0.8369763409
 C         -0.8522049727        1.8177226107        0.0072012876
 C          0.2320594062        2.5266043832        0.5037891035
 C          0.0359454332        3.3789918641        1.5842018076
 C         -1.2139912906        3.5067292133        2.1629510724
 C         -2.2843693852        2.7704244081        1.6897511051
 C         -2.0992136913        1.9192383877        0.6056089071
 N         -3.1632565791        1.1589049334        0.0963515122
 S         -2.8304061970       -0.4146787709       -0.4275373238
 O         -1.8114813652       -1.0092182525        0.4083969023
 O         -2.5808527196       -0.3887398992       -1.8462211693
 C         -4.4080201139       -1.1914873467       -0.1207352612
 C         -5.4038114841       -1.0805250971       -1.0728734429
 C         -6.6411775022       -1.6504624753       -0.8180130542
 C         -6.8621982589       -2.3159638012        0.3786982499
 C         -5.8529558080       -2.4205843520        1.3241168649
 C         -4.6132613810       -1.8523516813        1.0756783004
 H         -3.7957195732       -1.9151942199        1.7760497513
 H         -6.0258015327       -2.9415836129        2.2519526129
 H         -7.8259582555       -2.7585858612        0.5746289609
 H         -7.4266305439       -1.5735874014       -1.5522968714
 H         -5.1808131731       -0.5617124901       -1.9906640860
 H         -3.9893683077        1.1941820542        0.6781788285
 H         -3.2557662570        2.8503036515        2.1535575757
 H         -1.3519264705        4.1706409880        3.0026616960
 H          0.8766841042        3.9271537514        1.9825284076
 C          1.6024343258        2.3618012279       -0.1118331375
 H          2.3332604095        2.7798575980        0.5952537062
 C          1.6920746604        3.1411546755       -1.4082060529
 C          1.9390702441        4.6182007324       -1.3546155598
 C          3.0136243709        3.6955925772       -1.8444484510
 H          3.2511238653        3.6847485677       -2.8973926006
 H          3.8648131974        3.5176452610       -1.2033650069
 H          2.0662438123        5.0706975881       -0.3830717224
 H          1.4357829560        5.2479747137       -2.0717461938
 H          1.0303785668        2.7668730834       -2.1785633922
 O          2.8911774930        0.9744908868        1.9339447175
