  62
        -98.94006348
 C         -1.7221187812       -1.1008572712        0.3120570283
 C         -2.0440111695        0.0114776760       -0.5042975562
 C         -3.4575651383        0.1251793396       -0.9024518926
 C         -4.3439305107       -0.7940118756       -0.4812367939
 C         -5.8160066949       -0.7670892162       -0.7717445977
 C         -6.5849586019       -0.0177091667        0.3253499439
 C         -5.9868125101        1.3440224506        0.6787879037
 H         -6.6283809994        1.7934613362        1.4398391029
 H         -5.0044819807        1.1958379437        1.1332568342
 C         -5.8526173904        2.3064382388       -0.5095505188
 H         -6.2031373721        3.2938869861       -0.2019461551
 H         -6.4930304976        1.9763212047       -1.3283213588
 C         -4.4229483017        2.4830922967       -1.0250531126
 H         -3.7577670864        2.7228599430       -0.1913545379
 H         -4.4104577686        3.3370025397       -1.7078795605
 C         -3.8325358132        1.2857650443       -1.7805323150
 H         -4.5218764840        0.9694069512       -2.5663069216
 H         -2.9027161367        1.6180759073       -2.2522524484
 H         -7.6177174569        0.1108714042       -0.0035535011
 H         -6.5894751284       -0.6339031825        1.2273631221
 H         -5.9817979685       -0.2915470058       -1.7364434279
 H         -6.1763636846       -1.7962054594       -0.8172173214
 O         -4.0007199237       -1.8392061484        0.3138192489
 C         -2.6945276358       -2.0072304791        0.7437917291
 O         -2.5282689545       -2.9835975748        1.5010643154
 H          1.9168747653       -0.0146730909       -0.1474297746
 C          1.4642292418        0.4733105475        0.6979783181
 C          0.3150055341       -0.0483950257        1.2700589755
 C         -0.2804994428        0.6414161801        2.3231166504
 C          0.2511136805        1.8330603383        2.7752416470
 C          1.3995087560        2.3507432678        2.2028849257
 C          2.0089737203        1.6644757869        1.1585905120
 N          3.2042983242        2.1397725037        0.6146042428
 S          3.9117667140        1.5766103565       -0.7788428486
 O          5.0786965071        2.4204071824       -0.9338967511
 O          3.0081350489        1.5512689994       -1.9041725927
 C          4.4282942475       -0.0780616526       -0.3676008431
 C          4.2903206231       -1.0751547173       -1.3124894585
 C          4.6947567215       -2.3624982487       -0.9971047282
 C          5.2327639111       -2.6284396149        0.2525385852
 C          5.3731719872       -1.6146011540        1.1878816189
 C          4.9700962657       -0.3254727050        0.8779426705
 H          5.0620479814        0.4834205218        1.5831740686
 H          5.7923836250       -1.8257523825        2.1584434337
 H          5.5426672206       -3.6319921218        0.4980292348
 H          4.5861717855       -3.1513556264       -1.7243398675
 H          3.8581699481       -0.8233934513       -2.2684322712
 H          3.4896278524        3.0689550754        0.8788288775
 H          1.8173377877        3.2811650894        2.5555939159
 H         -0.2302364181        2.3651548714        3.5822278847
 H         -1.1784672589        0.2363640595        2.7707716879
 C         -0.3078035819       -1.3436629611        0.8113020198
 H         -0.4273581731       -1.9884126570        1.6981503400
 C          0.5699611149       -2.1124405858       -0.1657113207
 C         -0.0189778723       -3.1151125126       -1.1111046506
 C          0.5565499026       -1.8366212232       -1.6377690305
 H          1.4923901367       -1.8758641000       -2.1754580886
 H         -0.1147418108       -1.0729018591       -1.9980857710
 H         -1.0927307666       -3.2338617682       -1.1125911211
 H          0.5214122832       -4.0332721584       -1.2843495971
 H          1.5299831148       -2.3724781251        0.2711142077
 O         -1.2108350025        0.8731397428       -0.8869604273
