  62
        -98.94403533
 C          1.8328492970        1.1284949679        0.2292733873
 C          2.1814435345        0.1145503866       -0.6950844619
 C          3.6139179332       -0.0008499174       -0.9989568333
 C          4.4898039697        0.8520311092       -0.4370997315
 C          5.9767044040        0.8739676928       -0.6670230972
 C          6.7575196710       -0.1138416640        0.2106664958
 C          6.6030037606       -1.5864896902       -0.1714558633
 H          6.8158303201       -1.7095694885       -1.2337877233
 H          7.3643167292       -2.1419860327        0.3797847875
 C          5.2262645565       -2.1840787545        0.1516548132
 H          4.7066818847       -1.5396947852        0.8645157360
 H          5.3545171280       -3.1556949279        0.6340459915
 C          4.3261081333       -2.3989604102       -1.0653380939
 H          4.7722921214       -3.1474233840       -1.7241353516
 H          3.3646817982       -2.7865326635       -0.7176051230
 C          4.0545875585       -1.1286911475       -1.8820775630
 H          4.9421105463       -0.8478305196       -2.4488642698
 H          3.2423403512       -1.3389809130       -2.5824807984
 H          6.4527226367        0.0264500863        1.2502632960
 H          7.8150754237        0.1494343391        0.1358970333
 H          6.1882067569        0.6751160903       -1.7179170865
 H          6.3129148948        1.8854731883       -0.4293501269
 O          4.1076984754        1.8354968107        0.4206606917
 C          2.7809962428        1.9816558485        0.7934063627
 O          2.5761732690        2.8929810449        1.6206772334
 H         -2.0233792372        0.1065483257        0.0256457318
 C         -1.4369060293       -0.4498325423        0.7371059745
 C         -0.1945395782        0.0168952720        1.1378893488
 C          0.5329526296       -0.7306219236        2.0606898718
 C          0.0438767526       -1.9288554991        2.5418302759
 C         -1.1845045087       -2.4049948779        2.1186023700
 C         -1.9287011809       -1.6581808958        1.2134125911
 N         -3.1992280434       -2.0927215095        0.8190432854
 S         -3.8902707887       -1.6806620127       -0.6421221155
 O         -5.0011548862       -2.6011225880       -0.7725615517
 O         -2.9416320909       -1.6828634182       -1.7300326848
 C         -4.5368845691       -0.0407039203       -0.3874246383
 C         -5.0619138710        0.2974060957        0.8441153124
 C         -5.6042559695        1.5609859812        1.0159299499
 C         -5.6222691686        2.4575231009       -0.0415188402
 C         -5.0968371697        2.1008991146       -1.2737352455
 C         -4.5476867364        0.8402649773       -1.4505422234
 H         -4.1159428493        0.5259682034       -2.3878727299
 H         -5.1115927394        2.7986444148       -2.0961544200
 H         -6.0458480992        3.4400117211        0.0943351386
 H         -6.0120205512        1.8424872595        1.9734064125
 H         -5.0324707163       -0.4223695794        1.6447690998
 H         -3.4575659414       -3.0202236316        1.1200546424
 H         -1.5638873754       -3.3465698702        2.4851871186
 H          0.6255470239       -2.5023946096        3.2479937571
 H          1.4969369224       -0.3625993925        2.3859274535
 C          0.3823345118        1.3170822973        0.6341830586
 H          0.3911917629        2.0342037381        1.4685508784
 C         -0.4030788007        1.9198497860       -0.5123758287
 C         -1.5689383358        2.8195598007       -0.2349964244
 C         -0.2904452719        3.3918861054       -0.7672042890
 H         -0.2632592414        3.7372794745       -1.7897462427
 H          0.3376162620        3.9609910597       -0.0971762685
 H         -1.8176462611        3.0094749632        0.7980471734
 H         -2.4241333636        2.7726156538       -0.8919770804
 H         -0.4533183904        1.2628051694       -1.3742302969
 O          1.3457735755       -0.6549668605       -1.2373251310
