  62
        -98.94786828
 C         -1.1050486492       -1.1832037104        0.4893520001
 C         -1.4789087293       -0.4598389502       -0.6685858396
 C         -2.2772402798        0.7500292995       -0.4286221493
 C         -2.5059387800        1.1615136690        0.8314317708
 C         -3.2794673905        2.3876290786        1.2350338111
 C         -4.7968439404        2.1644581880        1.3026447509
 C         -5.4943785303        2.0212533582       -0.0510400092
 H         -5.2229092905        2.8626676585       -0.6891812189
 H         -6.5680942303        2.0875761178        0.1352620907
 C         -5.2011805697        0.7021146386       -0.7800126096
 H         -6.1349998895        0.2813659984       -1.1596197099
 H         -4.7901770495       -0.0215664315       -0.0721009698
 C         -4.2466597396        0.8313990693       -1.9674705595
 H         -4.7097827798        1.4442034594       -2.7437987293
 H         -4.0781156492       -0.1659740305       -2.3809583498
 C         -2.8812744599        1.4375871197       -1.6165878691
 H         -2.9883465003        2.5066267396       -1.4331912488
 H         -2.2091343397        1.2865044302       -2.4645372091
 H         -5.2298111408        3.0223822777        1.8222535812
 H         -4.9916834302        1.2768084577        1.9091703706
 H         -2.9264335507        2.6657457583        2.2305754813
 H         -3.0626199607        3.2070748589        0.5490958214
 O         -2.0301663899        0.4945656688        1.9187128706
 C         -1.3706409195       -0.7171487610        1.7767240503
 O         -1.0711766994       -1.2687238712        2.8560454701
 H          1.5859171907       -0.9597750197        1.1901979505
 C          1.8524943809       -1.4577179993        0.2689079604
 C          0.9425614113       -2.3232044294       -0.3278630200
 C          1.3096374416       -2.9748400989       -1.4973805302
 C          2.5550937916       -2.7521403083       -2.0586529000
 C          3.4556893913       -1.8874566782       -1.4659281596
 C          3.1030718309       -1.2393234787       -0.2861879094
 N          4.0220008705       -0.3962811286        0.3581520110
 S          3.5521633400        1.0082927310        1.1225169614
 O          4.7961307497        1.7108607913        1.3537130618
 O          2.7639377400        0.7122814503        2.2913839012
 C          2.5875087598        1.9059349711       -0.0770926284
 C          1.2187357497        1.9977217205        0.0609769015
 C          0.4973182996        2.7039923506       -0.8884231884
 C          1.1511475295        3.2899439012       -1.9603070781
 C          2.5280352396        3.1849578617       -2.0882082880
 C          3.2549849497        2.4884410417       -1.1377549881
 H          4.3283510897        2.4038078220       -1.1873482581
 H          3.0337857095        3.6450342122       -2.9216471078
 H          0.5816319394        3.8340449313       -2.6969296880
 H         -0.5722972804        2.7817224502       -0.7852757484
 H          0.7394397098        1.5252042601        0.9051089913
 H          4.8932557906       -0.2692036281       -0.1356605889
 H          4.4282937212       -1.7194143777       -1.9022998295
 H          2.8270645019       -3.2592814279       -2.9717239301
 H          0.6209254619       -3.6526550090       -1.9730542905
 C         -0.3896625087       -2.5156919301        0.3547575598
 H         -0.1909078387       -2.8558764604        1.3817948697
 C         -1.2906224283       -3.5244064202       -0.3269866707
 C         -1.0944284978       -4.9894876602       -0.0835366811
 C         -2.2808512781       -4.2847225108        0.5008461890
 H         -3.2573355080       -4.4833520610        0.0850138188
 H         -2.2915193883       -4.0913577212        1.5641343490
 H         -0.2994455878       -5.2818018202        0.5858280188
 H         -1.2591065475       -5.6761844600       -0.8998792514
 H         -1.6077543483       -3.2055366900       -1.3129212906
 O         -1.1801403991       -0.8073944497       -1.8391029297
