  62
        -98.93829709
 C          2.0962634209        1.0538846721        0.3241571440
 C          2.1344321327        0.1397828117       -0.7582680429
 C          2.2617414263       -1.2782465477       -0.3869982892
 C          2.3057735561       -1.6408099378        0.9060031898
 C          2.3860156057       -3.0482709959        1.4330354352
 C          3.8067742218       -3.6282226918        1.4673895495
 C          4.3965600700       -3.9901030622        0.1036531284
 H          5.2945338873       -4.5823120834        0.2902680912
 H          3.6933301200       -4.6240225701       -0.4371702554
 C          4.7740738558       -2.7814529994       -0.7639809669
 H          4.8306252617       -1.8879079843       -0.1381940920
 H          5.7661278554       -2.9367343240       -1.1936977824
 C          3.8152893073       -2.5101740876       -1.9234363700
 H          3.8437777514       -3.3450880556       -2.6270598340
 H          4.1548887554       -1.6141835207       -2.4489502097
 C          2.3596519590       -2.2824424022       -1.4956753356
 H          1.8023681748       -1.8854724223       -2.3483537857
 H          1.9010840022       -3.2243851373       -1.1936880320
 H          3.7726327441       -4.5343941053        2.0765255262
 H          4.4619701311       -2.9133246345        1.9701926601
 H          1.7379488221       -3.6943196136        0.8394952651
 H          1.9990440551       -3.0162304979        2.4539456238
 O          2.2648505025       -0.7335715802        1.9183779191
 C          2.1406743150        0.6175097330        1.6509003251
 O          2.0976417878        1.3370928095        2.6711742328
 O          2.0698821614        0.4600630368       -1.9727959982
 C          1.8523222804        2.5476564513        0.1688318674
 C          0.3888035141        2.8206729209        0.4182898926
 C         -0.0298812917        3.9029091994        1.1829941171
 C         -1.3745263990        4.0990705486        1.4454074081
 C         -2.3214456739        3.2051014318        0.9793022793
 C         -1.9116233986        2.1199736956        0.2126270268
 C         -0.5687162030        1.9526021586       -0.0855256778
 H         -0.2705559065        1.1082932807       -0.6892868302
 N         -2.8315569858        1.1749484196       -0.2713431470
 S         -2.3242976281       -0.4411466405       -0.2904005956
 O         -1.5419042321       -0.7305034166        0.8904553684
 O         -1.7064869624       -0.7171327469       -1.5623601125
 C         -3.9012629140       -1.2719653078       -0.2059736977
 C         -4.3846229352       -1.6799278149        1.0228850325
 C         -5.6251545062       -2.2953203200        1.0847967763
 C         -6.3586808490       -2.4878634574       -0.0763451443
 C         -5.8604600142       -2.0729423284       -1.3025350813
 C         -4.6203110335       -1.4581350885       -1.3716807639
 H         -4.1864488729       -1.1271004871       -2.3007986722
 H         -6.4319786779       -2.2269403350       -2.2034566679
 H         -7.3233695509       -2.9673167457       -0.0252718730
 H         -6.0128781849       -2.6216640165        2.0363174623
 H         -3.7737751803       -1.5168321639        1.8965609929
 H         -3.7505630082        1.2728952114        0.1390233676
 H         -3.3669070954        3.3396060068        1.2115332060
 H         -1.6866914437        4.9429366545        2.0416611093
 H          0.7074442803        4.5760161722        1.5951845462
 H          2.4167030465        3.0318566431        0.9834024954
 C          2.3509125038        3.1340059119       -1.1419905035
 C          1.4384213411        3.4861294310       -2.2739949658
 C          2.0852095031        4.5732200789       -1.4725371784
 H          2.8761372256        5.1497275172       -1.9276107280
 H          1.4578666586        5.1346175436       -0.7972815116
 H          1.7879619336        3.2915652973       -3.2761666146
 H          0.3813848369        3.3103203215       -2.1441567658
 H          3.3251420844        2.7432634694       -1.4147942429
