  62
        -98.94612629
 C          1.5214996653        1.0954900762        0.1907410971
 C          2.5418914777        0.6198154973        1.0509353681
 C          3.0570006475       -0.7222319068        0.7626050393
 C          2.5012305455       -1.4512869067       -0.2217521775
 C          2.8894174394       -2.8511904153       -0.6137195979
 C          4.0871854748       -2.9244703752       -1.5709817541
 C          5.4434229264       -2.6034587576       -0.9414879305
 H          5.5804212167       -3.2131130193       -0.0478661036
 H          6.2088715538       -2.9016761306       -1.6605816697
 C          5.6447147263       -1.1222579637       -0.5922000589
 H          6.6298761164       -0.7975342645       -0.9341878321
 H          4.9057957225       -0.5196607561       -1.1255142047
 C          5.5566118238       -0.8052399030        0.9007936022
 H          6.3725965489       -1.3021586193        1.4299424896
 H          5.6783810127        0.2732757846        1.0307508232
 C          4.2301576993       -1.2135609111        1.5556690375
 H          4.1776791116       -0.7531057519        2.5455314837
 H          4.1837037607       -2.2963272266        1.6728304714
 H          4.1255107142       -3.9421837692       -1.9661044459
 H          3.9052533172       -2.2485115050       -2.4096318277
 H          3.0995206641       -3.4353582325        0.2829302039
 H          2.0188656461       -3.2850128541       -1.1108612909
 O          1.4784344191       -0.9871217490       -0.9836858636
 C          0.9658207882        0.2887288913       -0.8025242631
 O          0.0374369749        0.5715330982       -1.5841505189
 O          2.9963638115        1.2862556463        2.0203822447
 C          0.9571387323        2.4793825552        0.4583173334
 C         -0.5501986140        2.4263867359        0.4491049324
 C         -1.3558388822        3.2846390365       -0.2876147538
 C         -2.7341259196        3.1547654174       -0.2563401114
 C         -3.3350096232        2.1545410915        0.4847894582
 C         -2.5362864754        1.2899981028        1.2244397427
 C         -1.1619979373        1.4500526357        1.2270208050
 H         -0.5567885032        0.7674624211        1.8069422409
 N         -3.0889081856        0.2221879449        1.9669000660
 S         -2.7501814363       -1.3165205750        1.3878108448
 O         -3.4341114140       -2.2194717606        2.2899154424
 O         -1.3260879527       -1.4927465796        1.2672735448
 C         -3.5513858513       -1.3624906748       -0.2060356164
 C         -4.8122771779       -1.9228866388       -0.2903635579
 C         -5.4813777905       -1.8937318354       -1.5026608592
 C         -4.8852221042       -1.2957364621       -2.6031252218
 C         -3.6219830024       -0.7348234808       -2.4998136638
 C         -2.9422811604       -0.7639765412       -1.2907102318
 H         -1.9554630139       -0.3371646242       -1.1934366091
 H         -3.1515277861       -0.2679309334       -3.3502739672
 H         -5.4065249892       -1.2671797661       -3.5469875650
 H         -6.4628002559       -2.3323575028       -1.5846984369
 H         -5.2330853076       -2.3772960185        0.5921716971
 H         -4.0880154415        0.3021017955        2.1045295428
 H         -4.4081142568        2.0348225507        0.4870843505
 H         -3.3464762449        3.8288420622       -0.8354822874
 H         -0.9060851088        4.0444713188       -0.9051899768
 H          1.2797135540        2.7085256691        1.4887366588
 C          1.5342031695        3.5721006389       -0.4299725953
 C          2.8702121829        3.4077158861       -1.0890759180
 C          1.6229139934        3.4205073643       -1.9180783269
 H          1.4286753319        4.2855952008       -2.5349951922
 H          1.2772686406        2.4914093803       -2.3430878938
 H          3.5287915645        4.2623219767       -1.1314703912
 H          3.3846115217        2.4674508411       -0.9514632934
 H          1.3093172097        4.5648587548       -0.0526286614
