  62
        -98.94414581
 C         -2.2479278800       -0.8447826701        0.4128524093
 C         -2.4634561802       -0.0063074895       -0.7078869002
 C         -3.3191582703        1.1632698302       -0.4695359295
 C         -3.7964604902        1.4043433195        0.7649500907
 C         -4.6638726402        2.5659720792        1.1679445515
 C         -6.1593297802        2.3490870192        0.8983568516
 C         -6.5703923705        2.4068095999       -0.5734578183
 H         -6.1912007207        3.3268072702       -1.0193866579
 H         -7.6606915905        2.4577742798       -0.5989077681
 C         -6.1131744205        1.2015020804       -1.4070031490
 H         -6.9438221605        0.8485927506       -2.0223041691
 H         -5.8381297503        0.3807614601       -0.7404522495
 C         -4.9425831607        1.4882348610       -2.3475839391
 H         -5.2495515409        2.2137006914       -3.1041039986
 H         -4.6785877906        0.5591518513       -2.8589340896
 C         -3.6839964606        2.0164245308       -1.6466261890
 H         -3.8310292907        3.0510817406       -1.3377053784
 H         -2.8528990607        1.9755267213       -2.3549144391
 H         -6.7032754403        3.1289356489        1.4363641621
 H         -6.4541976301        1.3862016890        1.3219957211
 H         -4.5237762401        2.7008459487        2.2427463915
 H         -4.3280615404        3.4692277195        0.6577781219
 O         -3.5166475199        0.6033464490        1.8289310203
 C         -2.7560889298       -0.5454437008        1.6757314595
 O         -2.5939448796       -1.1987238713        2.7280394792
 H          0.1325239101       -0.1700471903        1.2330627993
 C          0.6432643100       -0.7102875398        0.4440204489
 C         -0.0157612900       -1.7550657395       -0.1926860515
 C          0.6577197100       -2.4515503689       -1.1872092320
 C          1.9457258499       -2.0917487086       -1.5451235820
 C          2.5892317798       -1.0388669589       -0.9221875916
 C          1.9311584699       -0.3448164995        0.0849988089
 N          2.5766026599        0.7312137903        0.7220888194
 S          4.0961202500        0.4506267301        1.3840561390
 O          4.2525299703       -0.9311547401        1.7760784182
 O          4.2406413501        1.4377453696        2.4318476795
 C          5.2204705498        0.8407772909        0.0597857190
 C          5.1848424396        2.1158389012       -0.4697358303
 C          6.0545592394        2.4370193918       -1.4995654603
 C          6.9416372594        1.4840754522       -1.9779736509
 C          6.9681206696        0.2096655219       -1.4325426316
 C          6.1003496398       -0.1183370988       -0.4024105716
 H          6.0817504600       -1.0971278490        0.0497698379
 H          7.6590341497       -0.5293175378       -1.8052141021
 H          7.6165561492        1.7366895227       -2.7804429909
 H          6.0372758392        3.4273319120       -1.9254026598
 H          4.4838865595        2.8275577609       -0.0664993398
 H          1.9904347700        1.2142282699        1.3875927497
 H          3.5884820298       -0.7508287686       -1.2044845716
 H          2.4541785598       -2.6376628682       -2.3249961124
 H          0.1731458700       -3.2746242287       -1.6858932223
 C         -1.4128985099       -2.1029329799        0.2631942785
 H         -1.3377403396       -2.5406740304        1.2701365283
 C         -2.1183488599       -3.0884884495       -0.6455614119
 C         -1.9296626397       -4.5626347196       -0.4559268727
 C         -3.2306090797       -3.9195267600       -0.0827791621
 H         -4.0971156598       -4.1079507597       -0.6987005221
 H         -3.4598511196       -3.7952012405        0.9660266380
 H         -1.2778770395       -4.8850957800        0.3421242570
 H         -1.9062720798       -5.1967575392       -1.3293002830
 H         -2.2373794201       -2.7105186390       -1.6543587017
 O         -1.9690310304       -0.2191778089       -1.8442541104
