  62
        -98.94033970
 C          1.8140990706        0.8230499403       -0.8367450587
 C          2.0608919504        0.3461608496        0.4745600811
 C          3.4774933203        0.2320302393        0.8521525813
 C          4.4380099405        0.6196004896       -0.0051254783
 C          5.9210252704        0.5840981493        0.2467095319
 C          6.5687070804       -0.7805331106       -0.0256055987
 C          6.2536904701       -1.8673998211        1.0030266107
 H          6.4672874199       -1.4910319016        2.0039441509
 H          6.9394878300       -2.6956136011        0.8135580804
 C          4.8135639300       -2.3957805709        0.9454212102
 H          4.8243735899       -3.4871597209        0.9874618196
 H          4.3616026402       -2.1174523404       -0.0093829497
 C          3.9133264999       -1.9072857914        2.0803200603
 H          4.2836323997       -2.2921197819        3.0330628302
 H          2.9106353799       -2.3117459712        1.9208474699
 C          3.7978909700       -0.3806789414        2.1820952311
 H          4.7192991200        0.0406002583        2.5836108814
 H          2.9768350599       -0.1420860317        2.8626258810
 H          7.6505227404       -0.6292680407       -0.0431382884
 H          6.2651926905       -1.1193535500       -1.0189458589
 H          6.1258024503        0.8869781988        1.2740181921
 H          6.3678375806        1.3179370496       -0.4277064776
 O          4.1566804007        1.1293383103       -1.2344694581
 C          2.8492064108        1.2333681206       -1.6807507183
 O          2.7383565211        1.7133901812       -2.8269986980
 O          1.1618247902        0.0318862593        1.2950806208
 C          0.4019162408        0.9805167607       -1.3725615688
 C         -0.4791028594        1.6370600503       -0.3379584386
 C         -0.0842639493        2.8615749400        0.1967381221
 C         -0.8557853094        3.5004495695        1.1464180323
 C         -2.0548348595        2.9478098795        1.5633555618
 C         -2.4640242096        1.7345448298        1.0278285611
 C         -1.6740668795        1.0833003202        0.0903468809
 H         -2.0001426595        0.1299503504       -0.2885747897
 N         -3.6719797297        1.1376498797        1.4228346606
 S         -4.6703097596        0.4906790504        0.2455405101
 O         -4.5665329293        1.2213862810       -0.9966847695
 O         -5.9835845397        0.4585088902        0.8543027198
 C         -4.1044607897       -1.1818506695        0.0207615993
 C         -3.9842869295       -1.6849537089       -1.2595753409
 C         -3.5849916096       -3.0014306589       -1.4286433015
 C         -3.3155070799       -3.7879559295       -0.3188585419
 C         -3.4413402701       -3.2671577501        0.9602014283
 C         -3.8430163200       -1.9527299801        1.1359416789
 H         -3.9504604801       -1.5149334506        2.1141875792
 H         -3.2263371003       -3.8811606606        1.8198366181
 H         -3.0018692300       -4.8113876994       -0.4526069324
 H         -3.4837237695       -3.4066630284       -2.4230694617
 H         -4.1945550093       -1.0346891085       -2.0939792406
 H         -4.1976235398        1.6586834394        2.1096772507
 H         -2.6640235396        3.4494759591        2.3002036419
 H         -0.5284401194        4.4426586493        1.5602605028
 H          0.8478657408        3.2994388400       -0.1356719376
 H          0.4952137910        1.6824119411       -2.2186795384
 C         -0.1924043893       -0.3023025689       -1.9363327196
 C          0.6847536207       -1.3858839687       -2.4868781600
 C         -0.0796316395       -1.6129664393       -1.2191545502
 H         -0.9262051196       -2.2834157292       -1.2419358107
 H          0.4588537003       -1.6213583498       -0.2852970302
 H          0.3644262908       -1.8963142782       -3.3826161703
 H          1.7541048207       -1.2435089889       -2.4255974897
 H         -1.1183624692       -0.1164792786       -2.4732749896
