  62
        -98.94607287
 C          1.4142667922        0.8346748503       -0.0976764985
 C          2.5006998253        0.8583405434        0.8155010625
 C          3.4697187782       -0.2390939623        0.7170193336
 C          3.2691235864       -1.2073450413       -0.1951017580
 C          4.1933468764       -2.3651374301       -0.4360871466
 C          5.2358532412       -2.0320515110       -1.5125418388
 C          5.9459920799       -0.6965047318       -1.2911105841
 H          6.6782393179       -0.5807916660       -2.0930501001
 H          5.2208142211        0.1133739277       -1.3976673431
 C          6.6501124585       -0.5696843363        0.0670328176
 H          6.7886941963       -1.5583240838        0.5060674544
 H          7.6427858048       -0.1432115526       -0.0916585301
 C          5.9323872209        0.3339031288        1.0714060886
 H          5.7071890937        1.2954005352        0.6033496335
 H          6.6148492423        0.5266856959        1.9034394697
 C          4.6346727303       -0.2272848285        1.6665414021
 H          4.8149227278       -1.2276224551        2.0661707205
 H          4.3386498761        0.4245424981        2.4938118449
 H          5.9714996100       -2.8379645767       -1.5411031630
 H          4.7325587068       -1.9966837692       -2.4815251903
 H          4.6889578660       -2.6260986008        0.4972569823
 H          3.5961804227       -3.2163133774       -0.7686106798
 O          2.2113821142       -1.2112433190       -1.0416787657
 C          1.2569420596       -0.2012845357       -1.0198770526
 O          0.3574776100       -0.3579054829       -1.8679071298
 H         -0.8374839581       -0.4149882958        0.4418170907
 C         -1.2459368021        0.3788043503        1.0462630617
 C         -0.7066752854        1.6539188102        0.9769644628
 C         -1.2388054241        2.6484898279        1.7908399623
 C         -2.2839520433        2.3696494671        2.6517558115
 C         -2.8253953626        1.0981637469        2.7113525385
 C         -2.2985908025        0.0948832810        1.9059973022
 N         -2.8115986451       -1.2083532091        1.9642710957
 S         -2.9344966148       -2.1372780866        0.5775600661
 O         -3.8925190686       -3.1639883788        0.9339299621
 O         -1.6347539560       -2.6074860228        0.1722375706
 C         -3.6607187398       -1.0441922432       -0.6295578978
 C         -2.9093355258       -0.5160960375       -1.6582342387
 C         -3.5168046036        0.3703505389       -2.5360042901
 C         -4.8492534286        0.7119540858       -2.3712455665
 C         -5.5914043849        0.1663820509       -1.3341291542
 C         -4.9927393282       -0.7181452240       -0.4535528753
 H         -5.5371623264       -1.1758086447        0.3565080245
 H         -6.6294877019        0.4292079602       -1.2098673284
 H         -5.3117351412        1.4046763364       -3.0565877059
 H         -2.9359497155        0.7894553608       -3.3426000829
 H         -1.8702779481       -0.7884088806       -1.7632273489
 H         -3.6214759935       -1.3184294244        2.5566799170
 H         -3.6392691063        0.8764509662        3.3843059149
 H         -2.6830874419        3.1488287911        3.2827012858
 H         -0.8163091949        3.6410935211        1.7578608661
 C          0.4208265002        1.9748562495        0.0212496406
 H          0.9896627348        2.8092596456        0.4559353304
 C         -0.1622567112        2.4313712669       -1.3027634000
 C         -0.5720351109        3.8610144805       -1.4823440055
 C          0.6387385863        3.3335553642       -2.1909258187
 H          0.5942322509        3.1754625092       -3.2577816867
 H          1.6118502701        3.6438804389       -1.8383608417
 H         -1.4570148350        4.0712024567       -2.0624236278
 H         -0.4144314075        4.5399101877       -0.6585796071
 H         -0.7647223463        1.6721681932       -1.7830815562
 O          2.6535858746        1.7694786838        1.6740892340
