  62
        -98.93388140
 C         -2.2066786845       -0.8947162418        0.6237082830
 C         -3.3393303745       -0.8910242464       -0.2237909386
 C         -4.3551488023        0.1490435511        0.0341974500
 C         -4.1553843460        1.0493028417        1.0134085900
 C         -5.0157268763        2.1900419150        1.5165662399
 C         -6.2188682842        2.6764600961        0.7127537071
 C         -5.8705772064        3.3626614416       -0.6078819400
 H         -6.8006761215        3.5676309313       -1.1423617756
 H         -5.3962069847        4.3218333981       -0.3853060838
 C         -4.9296708251        2.5874296588       -1.5268363734
 H         -4.7574888520        3.1960532656       -2.4187929938
 H         -3.9623126188        2.4567992426       -1.0368163899
 C         -5.4413487452        1.2240209237       -1.9867802544
 H         -6.4228402536        1.3371860762       -2.4511694600
 H         -4.7502639464        0.8536296424       -2.7486054654
 C         -5.5390751486        0.1498895433       -0.8904387356
 H         -6.4642897121        0.2417334780       -0.3271853073
 H         -5.5468282232       -0.8288234792       -1.3785088980
 H         -6.7341913408        3.4098291506        1.3389620542
 H         -6.9154320547        1.8599627084        0.5473952349
 H         -5.3636472221        1.8816456146        2.5087245002
 H         -4.3304821553        3.0282245171        1.6795396791
 O         -3.0386105606        1.0141259068        1.8004945279
 C         -2.0566044968        0.0571478579        1.6350567547
 O         -1.1133528736        0.1518690709        2.4479367254
 H          1.4816681646       -1.0836544646        0.7475784252
 C          1.1715931942       -1.1316824864       -0.2858964499
 C         -0.1219684425       -1.5223358923       -0.6023895143
 C         -0.5053274827       -1.5551002055       -1.9392789831
 C          0.3899557707       -1.1978301691       -2.9304162984
 C          1.6774996367       -0.8044018393       -2.6116262689
 C          2.0725426524       -0.7735379559       -1.2790538288
 N          3.3913479985       -0.4237052482       -0.9385229296
 S          3.6824356918        0.4290634158        0.4889487093
 O          3.6096754957       -0.4858497477        1.5999806495
 O          2.8363220370        1.6003761513        0.5523663333
 C          5.3812851066        0.9015755845        0.2206077019
 C          5.6822335969        2.1926845322       -0.1688109816
 C          7.0066438187        2.5323743124       -0.3980935475
 C          8.0014029813        1.5797627556       -0.2378328598
 C          7.6839177987        0.2875917989        0.1543536264
 C          6.3624286290       -0.0579608303        0.3869944853
 H          6.0685531498       -1.0454974441        0.7020485308
 H          8.4601726825       -0.4497255398        0.2805215401
 H          9.0309080266        1.8467154900       -0.4169958355
 H          7.2564723228        3.5369335568       -0.6993380654
 H          4.8761165980        2.9010642986       -0.2736562342
 H          3.8912079471       -0.0078570828       -1.7133952844
 H          2.3740643345       -0.5253793531       -3.3878022373
 H          0.0801252063       -1.2214329462       -3.9643715942
 H         -1.5145924075       -1.8428265772       -2.1890493477
 C         -1.0753521143       -1.9041757984        0.5053044390
 H         -0.5215269736       -1.8344714296        1.4521632256
 C         -1.5590738475       -3.3321317323        0.3397534764
 C         -0.6249426639       -4.4521732013        0.6806902935
 C         -1.8058967346       -4.1665950169        1.5583577923
 H         -2.6359543854       -4.8568673713        1.5502279796
 H         -1.6273552730       -3.7094279372        2.5213099565
 H         -0.6418301712       -5.3412380394        0.0694505810
 H          0.3555835033       -4.1883457336        1.0490038941
 H         -2.2275295405       -3.4676724925       -0.4995311116
 O         -3.5292243158       -1.7146027067       -1.1569957317
