  62
        -98.94063869
 C         -1.7628216701       -0.4882167502       -0.3903101793
 C         -2.9492019401       -0.6618649303       -1.1475929192
 C         -4.2112534501       -0.6223167999       -0.3975175392
 C         -4.1743533601       -0.4799614994        0.9397230007
 C         -5.3821176700       -0.3741515490        1.8240906107
 C         -5.8073675599        1.0889595911        2.0115925601
 C         -5.9155075699        1.8736960706        0.7041279198
 H         -6.2506946798        2.8819303308        0.9567098094
 H         -4.9212845699        1.9676887204        0.2613782298
 C         -6.8725672699        1.2603049203       -0.3275190599
 H         -7.5428882700        0.5535947906        0.1630254304
 H         -7.4916740099        2.0557628202       -0.7476505302
 C         -6.1796216400        0.5679464998       -1.5026896696
 H         -5.4400384400        1.2426582296       -1.9414506699
 H         -6.9317535400        0.3652389196       -2.2697871896
 C         -5.4872290301       -0.7619381101       -1.1789868391
 H         -6.1853991202       -1.4237795199       -0.6622840289
 H         -5.2073168402       -1.2306976905       -2.1271154490
 H         -6.7687677099        1.1051119514        2.5281316601
 H         -5.0709179799        1.5845083013        2.6483073899
 H         -6.1973955101       -0.9471476591        1.3864516609
 H         -5.1332062201       -0.7990516686        2.7979344309
 O         -3.0170922200       -0.3736526992        1.6388201407
 C         -1.7823601601       -0.3714616096        1.0006404606
 O         -0.8157859900       -0.2676018294        1.7770942406
 H          2.1242386600       -0.0190438704       -0.2316712896
 C          1.8023113299       -1.0333666603       -0.0691309492
 C          0.5344867298       -1.4372210604       -0.4529430090
 C          0.1523634097       -2.7536665902       -0.2032811985
 C          1.0090685697       -3.6312362601        0.4297925819
 C          2.2789936597       -3.2249918500        0.8030450117
 C          2.6751344798       -1.9198667502        0.5470583512
 N          3.9538347099       -1.4654647401        0.9075324310
 S          4.8218842699       -0.5586176906       -0.2003048294
 O          4.5112896799       -0.9430946511       -1.5579765492
 O          6.2044328299       -0.7124188906        0.2012097507
 C          4.3298415901        1.1277451895        0.0861205600
 C          4.0727690901        1.9465928391       -0.9956002104
 C          3.7363353602        3.2719801892       -0.7689904709
 C          3.6648144803        3.7526716497        0.5297029489
 C          3.9257060102        2.9167512301        1.6049756593
 C          4.2654393801        1.5915803600        1.3849097598
 H          4.4743447301        0.9140537703        2.1956958900
 H          3.8642398803        3.2936673805        2.6131293091
 H          3.4005290204        4.7838343298        0.7042072985
 H          3.5299256503        3.9223556589       -1.6042643711
 H          4.1311515801        1.5281223887       -1.9879013902
 H          4.5371893898       -2.1561830800        1.3572671612
 H          2.9536396796       -3.9115535499        1.2921057120
 H          0.6920693396       -4.6445161100        0.6270297623
 H         -0.8359830103       -3.0759552703       -0.5032172383
 C         -0.4429552201       -0.5166310506       -1.1390287393
 H         -0.6947579002       -0.9674524309       -2.1145938291
 C          0.1355594700        0.8592203393       -1.4356747999
 C         -0.7454290499        2.0682258493       -1.5259630003
 C          0.2212424901        1.9296171497       -0.3903357103
 H          1.0953409202        2.5641397796       -0.3783081506
 H         -0.1625851599        1.6967007301        0.5900753398
 H         -0.5384479898        2.7962516790       -2.2957511606
 H         -1.7980844299        1.9363192695       -1.3213003503
 H          0.9538889000        0.8080207789       -2.1483981699
 O         -2.9504307501       -0.8488781608       -2.3940203991
