  62
        -98.93760529
 C         -0.5885460641       -1.5866277266       -0.1258262930
 C         -1.4173368496       -1.0555563249        0.8925469666
 C         -2.5397529821       -0.1975435123        0.4754860862
 C         -2.6861080164        0.0936825355       -0.8300346025
 C         -3.6991075320        0.9548346834       -1.5573933514
 C         -4.9309899751        1.4866002940       -0.8297473721
 C         -5.9666350293        0.4182646493       -0.4762435919
 H         -6.7317135974        0.8754787395        0.1545975734
 H         -6.4505968164        0.0896801847       -1.3995237303
 C         -5.4220650956       -0.8255347687        0.2220901006
 H         -4.6972247232       -1.3221460428       -0.4262110241
 H         -6.2546837188       -1.5198856627        0.3642037216
 C         -4.7824723741       -0.5824443632        1.5872097897
 H         -4.5588649350       -1.5587853597        2.0254615866
 H         -5.4960611200       -0.0781351033        2.2416949354
 C         -3.4775511599        0.2301813356        1.5679752118
 H         -3.6844807299        1.2951870957        1.5119340894
 H         -2.9491099331        0.0451953717        2.5073936086
 H         -5.4110392698        2.1990002252       -1.5061967573
 H         -4.6369841473        2.0432219567        0.0552016155
 H         -4.0220840614        0.3704641345       -2.4253330255
 H         -3.1335349582        1.8029526316       -1.9598965864
 O         -1.8134089002       -0.3733338566       -1.7696309899
 C         -0.7692016650       -1.2393203066       -1.4643053573
 O         -0.1228046385       -1.6052177627       -2.4615297207
 O         -1.2342841386       -1.3064123402        2.1136561217
 C          0.5082914832       -2.5317275903        0.3281966328
 C          1.7482736112       -1.7805068632        0.7408536079
 C          2.4633346862       -2.1659846399        1.8698038881
 C          3.6169698412       -1.4968673714        2.2359668778
 C          4.0656110161       -0.4175130014        1.4968851456
 C          3.3482361620       -0.0133075153        0.3763261919
 C          2.2016942028       -0.6987697228       -0.0005617001
 H          1.6675534949       -0.3878354179       -0.8862175338
 N          3.7669555843        1.0919934215       -0.3779877289
 S          2.6345972295        2.1055871805       -1.0640652706
 O          2.1297195120        1.5500337410       -2.2933626254
 O          3.3296225248        3.3708274516       -1.1939410390
 C          1.3143319959        2.2893575139        0.1232868892
 C          1.6061455469        2.4035250326        1.4681541330
 C          0.5702577434        2.6134960777        2.3635974904
 C         -0.7303295959        2.7338522204        1.9012759699
 C         -1.0053736434        2.6343681922        0.5471647143
 C          0.0234652963        2.3983316261       -0.3501520828
 H         -0.1503782649        2.2874367400       -1.4096065598
 H         -2.0144920616        2.7393580578        0.1843084870
 H         -1.5341545337        2.9057763510        2.5992086524
 H          0.7812588178        2.6871006765        3.4181332706
 H          2.6261283352        2.3258774063        1.8068246579
 H          4.5503560093        1.6030418640        0.0019371266
 H          4.9614677397        0.1124369138        1.7818896450
 H          4.1667040967       -1.8102179217        3.1100128399
 H          2.1013254489       -2.9894230683        2.4671126922
 H          0.1093247794       -3.0149976902        1.2352839279
 C          0.8112609608       -3.6361705028       -0.6745290124
 C          2.0184097982       -3.6329803737       -1.5582568827
 C          1.9250272284       -4.6105564141       -0.4276014313
 H          1.7571089196       -5.6516120399       -0.6582048647
 H          2.5598395871       -4.4421754200        0.4285953516
 H          1.8975679518       -3.9846115410       -2.5714266187
 H          2.7077778111       -2.8071225798       -1.4720098666
 H         -0.0969955596       -4.0388514651       -1.1117771962
