  62
        -98.93934719
 C         -1.4950439476       -0.7929092943       -0.0251436154
 C         -2.7718270439       -1.3934831121        0.0337336143
 C         -3.8951405020       -0.5180868818        0.4138007372
 C         -3.6593062270        0.7811669206        0.6765536811
 C         -4.5868974144        1.8921083135        1.1239468469
 C         -6.1021660094        1.7229161277        1.0536013743
 C         -6.6719145839        1.6507700091       -0.3628281627
 H         -7.7382751290        1.4255408170       -0.2916584828
 H         -6.5705578913        2.6344714119       -0.8281790240
 C         -6.0098438416        0.6337052628       -1.2890605065
 H         -4.9628529141        0.9029814369       -1.4418984950
 H         -6.5037614012        0.6967260344       -2.2625920703
 C         -6.0847772142       -0.8192380124       -0.8243109870
 H         -7.1248491708       -1.0921247354       -0.6349810727
 H         -5.7188955785       -1.4457720554       -1.6423836974
 C         -5.2533971648       -1.1585214516        0.4247978707
 H         -5.7900939560       -0.9083906820        1.3369598423
 H         -5.0820801647       -2.2391307821        0.4319392481
 H         -6.4125856808        0.8592260603        1.6342457530
 H         -6.5362667273        2.6016720983        1.5384971704
 H         -4.2984944374        2.7727891344        0.5414926585
 H         -4.3112040123        2.1068748427        2.1623228647
 O         -2.4035693487        1.3139932903        0.6113946625
 C         -1.2964884518        0.5563555708        0.2633990208
 O         -0.2247483023        1.1866614353        0.2482238310
 O         -2.9683428288       -2.6158477448       -0.2068505287
 C         -0.2926222031       -1.6328896702       -0.4121807554
 C          0.7607112504       -1.5527190731        0.6641636459
 C          0.3890418010       -1.7488852987        1.9923205411
 C          1.3204814760       -1.6565950126        3.0073452064
 C          2.6415587257       -1.3559127026        2.7233866613
 C          3.0261667535       -1.1748381406        1.4010727796
 C          2.0908422155       -1.2886568405        0.3807828341
 H          2.4221077247       -1.1696068582       -0.6361154670
 N          4.3586166988       -0.8895402659        1.0796458902
 S          4.7583226337       -0.0142880361       -0.2825116347
 O          4.6495828228       -0.8466417880       -1.4550034809
 O          6.0856883946        0.4888248426        0.0034265027
 C          3.6090844189        1.3451395709       -0.3855732559
 C          2.9189341004        1.5601068619       -1.5599967737
 C          2.0477100138        2.6332992848       -1.6399394840
 C          1.8800163110        3.4675766320       -0.5474918402
 C          2.5822918077        3.2400761999        0.6247284216
 C          3.4576405783        2.1708387941        0.7094087962
 H          4.0198810953        1.9731686176        1.6078290415
 H          2.4430262644        3.8887383542        1.4746811880
 H          1.1912856543        4.2952609556       -0.6080482998
 H          1.4944346125        2.8088131590       -2.5492079113
 H          3.0719725180        0.8813300987       -2.3846446106
 H          4.9614755514       -0.6838144339        1.8617363419
 H          3.3677559870       -1.2680206437        3.5166910529
 H          1.0154725165       -1.8088916267        4.0317974104
 H         -0.6458884841       -1.9679290373        2.2177187943
 H         -0.6579848988       -2.6691984564       -0.4675572266
 C          0.2147456092       -1.2173953951       -1.7772710132
 C          0.9350016630       -2.1997726389       -2.6501347627
 C         -0.4523146854       -1.7576676781       -3.0049383178
 H         -0.5860553775       -1.1012521158       -3.8516730678
 H         -1.2635593314       -2.4565187659       -2.8619949522
 H          1.7628180632       -1.8504521280       -3.2495041455
 H          1.0663525350       -3.2020769457       -2.2709105902
 H          0.5383997971       -0.1820899248       -1.7974362835
