  62
        -98.93606350
 C         -2.4888731197        0.1295003739        0.5961840412
 C         -2.1865048328        0.6481628616       -0.6865361247
 C         -1.7799341271        2.0611997878       -0.7238608157
 C         -1.7111205225        2.7607462850        0.4224256554
 C         -1.3118479930        4.2043616107        0.5297657365
 C          0.1921754477        4.3656698233        0.7835832878
 C          1.0741868252        3.5695499283       -0.1781794341
 H          2.1126901813        3.8150536307        0.0576374361
 H          0.9504685110        2.5012174341        0.0154023484
 C          0.8085901949        3.8428361532       -1.6652454098
 H          0.2778904023        4.7890129795       -1.7822739006
 H          1.7685491813        3.9424558573       -2.1759742913
 C          0.0376846253        2.7295621494       -2.3782366023
 H          0.4855092386        1.7647727275       -2.1275231382
 H          0.1408628371        2.8773001067       -3.4568576393
 C         -1.4628714157        2.6533262014       -2.0678820285
 H         -1.9142144846        3.6430204803       -2.1712505292
 H         -1.9226258333        1.9856439409       -2.8024129348
 H          0.4392589752        5.4271385927        0.7127370727
 H          0.4106739794        4.0312783710        1.8007806769
 H         -1.5921952382        4.7179605742       -0.3880842644
 H         -1.8596525083        4.6462328006        1.3644700357
 O         -1.9932120859        2.2218474031        1.6384382191
 C         -2.3703178174        0.8949432003        1.7540316157
 O         -2.5851211091        0.5209604557        2.9276948016
 H         -0.3759674566       -1.2396994324        1.1754854846
 C         -0.5915014820       -1.9686545053        0.4057159949
 C         -1.9149954770       -2.1879601806        0.0274044768
 C         -2.1506029213       -3.1393694655       -0.9559478330
 C         -1.0970565488       -3.8177380602       -1.5486969869
 C          0.2130746577       -3.5563100693       -1.2003421938
 C          0.4647713500       -2.6129446138       -0.2107277312
 N          1.7788765963       -2.2977828031        0.1868083017
 S          2.0835563968       -0.6568225206        0.4724921542
 O          1.7556777060       -0.3554955933        1.8450555053
 O          1.4407234865        0.1480053711       -0.5383916795
 C          3.8545025865       -0.6107292304        0.2665693856
 C          4.3944272216       -0.0828593461       -0.8904582437
 C          5.7719468083       -0.0816071239       -1.0471205345
 C          6.5803965812       -0.6089026200       -0.0516405218
 C          6.0234678469       -1.1345627047        1.1051270757
 C          4.6475206623       -1.1370702136        1.2690589527
 H          4.1690977733       -1.5243924724        2.1535400839
 H          6.6551437982       -1.5409441459        1.8784198844
 H          7.6516487672       -0.6075876546       -0.1763337803
 H          6.2071814028        0.3297194967       -1.9434918416
 H          3.7253366862        0.3203196055       -1.6336840059
 H          2.4728125474       -2.6905899569       -0.4359171740
 H          1.0301217366       -4.0665507543       -1.6874318505
 H         -1.3067829587       -4.5485411777       -2.3152922245
 H         -3.1460144964       -3.3522408841       -1.2997117274
 C         -2.9147454702       -1.3263034261        0.7631614067
 H         -2.7781186822       -1.5426075319        1.8372290166
 C         -4.4125580833       -1.4160308217        0.5119912106
 C         -5.0586665162       -1.5887204635       -0.8264032828
 C         -5.1799865915       -2.6681217013        0.2096517719
 H         -6.1371766337       -2.7912924951        0.6949130188
 H         -4.6399028113       -3.5916890400        0.0844730952
 H         -5.9312754521       -0.9889695376       -1.0420758988
 H         -4.4151306054       -1.7251669007       -1.6799614275
 H         -4.9102030196       -0.7188283702        1.1841146243
 O         -2.2687966047       -0.0222408657       -1.7470669761
