  62
        -98.93663591
 C         -1.7921312851       -0.8230848035        0.6947738917
 C         -2.1905894322        0.3451919445        0.0030547074
 C         -3.6406356641        0.5943467917       -0.0569305579
 C         -4.4815871096       -0.2680572691        0.5427516462
 C         -5.9817366134       -0.1954821956        0.5018821091
 C         -6.4963901272       -0.7020686705       -0.8606369325
 C         -7.1828688988        0.3663088233       -1.7117668958
 H         -7.3053438718       -0.0445239207       -2.7161731673
 H         -8.1802145162        0.5545942296       -1.3088502153
 C         -6.4559960229        1.7111316719       -1.8087773300
 H         -6.9099921781        2.2591085063       -2.6372186607
 H         -6.6453567452        2.2970585683       -0.9081432586
 C         -4.9405731314        1.6402957645       -2.0377873250
 H         -4.6641996972        2.4359255161       -2.7328799720
 H         -4.6658751106        0.6972665086       -2.5109585587
 C         -4.0902095913        1.8400746672       -0.7690247525
 H         -3.1632395345        2.3515380590       -1.0462423412
 H         -4.6250966489        2.4886124546       -0.0694240668
 H         -7.2026524508       -1.5183723107       -0.7022947749
 H         -5.6513259108       -1.1201430518       -1.4115592286
 H         -6.3053073482        0.8280538807        0.6772117093
 H         -6.3592256696       -0.8246456579        1.3081436524
 O         -4.0568883189       -1.3736731333        1.2082369683
 C         -2.7093814948       -1.6801364042        1.3015608505
 O         -2.4596439876       -2.7194320648        1.9446691211
 O         -1.3785561716        1.1441527236       -0.5338887023
 C         -0.3201906058       -1.1790606608        0.7971580701
 C          0.4603333444       -0.0371516308        1.4002349712
 C         -0.0308638259        0.5864440756        2.5444239428
 C          0.6529643326        1.6362934084        3.1249438183
 C          1.8442123625        2.0834042830        2.5812670874
 C          2.3539822435        1.4562961435        1.4507686272
 C          1.6680565149        0.3952665582        0.8742586835
 H          2.0734474773       -0.0681040821       -0.0092314576
 N          3.5862675143        1.8551788161        0.9217061127
 S          4.0214246550        1.6177776612       -0.6698821286
 O          5.1906325970        2.4558382620       -0.8392240083
 O          2.9362673315        1.8613975118       -1.5901090057
 C          4.5258714351       -0.0889530829       -0.7464330061
 C          4.3170397869       -0.7891718375       -1.9180413051
 C          4.7513001125       -2.1029736978       -2.0032189790
 C          5.3828309952       -2.6920585035       -0.9189413587
 C          5.5855808889       -1.9751928225        0.2503409124
 C          5.1591811131       -0.6596618991        0.3397689702
 H          5.3015963263       -0.0760525327        1.2336904915
 H          6.0752391309       -2.4371399335        1.0924662187
 H          5.7163878022       -3.7154656795       -0.9863342943
 H          4.5943039016       -2.6609668873       -2.9128036444
 H          3.8095236913       -0.2960715257       -2.7323367567
 H          3.9811875794        2.6966365656        1.3130029872
 H          2.3748695016        2.9106105947        3.0273082311
 H          0.2532332420        2.1166066305        4.0055155576
 H         -0.9662661591        0.2425818961        2.9652165496
 H         -0.2640520684       -2.0331662394        1.4884052684
 C          0.2024272909       -1.6162846272       -0.5559303051
 C          1.2959927941       -2.6365931844       -0.6477787559
 C         -0.1049178880       -3.0027004021       -1.0334746941
 H         -0.3330509858       -3.1493211184       -2.0785360045
 H         -0.6723260610       -3.6382432182       -0.3689986107
 H          2.0336936880       -2.5322013158       -1.4288682112
 H          1.6871395533       -3.0336167332        0.2765836206
 H          0.1824548458       -0.8164176112       -1.2885941443
