  62
        -98.93306136
 C         -2.0980011673       -0.4850282231        0.2890815639
 C         -2.8152358397        0.7242669696        0.1058746916
 C         -4.1783310335        0.6171497739       -0.4381023962
 C         -4.6680585936       -0.5962812966       -0.7436517730
 C         -6.0052774368       -0.9469904998       -1.3467569695
 C         -7.2392294893       -0.2072503883       -0.8128503780
 C         -7.1800415013        0.1628278421        0.6763361315
 H         -8.0934433917       -0.1820799549        1.1645301694
 H         -6.3422854275       -0.3462297847        1.1559768393
 C         -7.0626652827        1.6705416852        0.9125285120
 H         -7.7426088112        2.1858684722        0.2306101059
 H         -7.3905239715        1.8934866412        1.9307848250
 C         -5.6587026144        2.2528902462        0.7525531988
 H         -5.0213511181        1.9171519424        1.5752588934
 H         -5.7343305328        3.3401759524        0.8316223424
 C         -4.9420324573        1.9041351339       -0.5622182874
 H         -5.6389774500        1.8801628294       -1.3965153792
 H         -4.1955510362        2.6799376919       -0.7535550017
 H         -7.4028785187        0.6975891271       -1.3964623217
 H         -8.0979023209       -0.8563359527       -0.9927001006
 H         -5.9389038061       -0.7973278579       -2.4283558383
 H         -6.1200361040       -2.0202628867       -1.1771871665
 O         -3.9431162904       -1.7338268565       -0.5613044145
 C         -2.6523965460       -1.7196497277       -0.0477657739
 O         -2.1433951423       -2.8508943611        0.0479822989
 O         -2.3312615891        1.8542685126        0.3857241388
 C         -0.6999115785       -0.3654116715        0.8666668874
 C          0.3353244593       -0.2553224165       -0.2244808890
 C          0.3602195728       -1.1503173739       -1.2906900962
 C          1.3158618720       -1.0334720632       -2.2828180414
 C          2.2764591157       -0.0382186077       -2.2211703456
 C          2.2646701774        0.8554726658       -1.1580041222
 C          1.2908042731        0.7488174928       -0.1735223543
 H          1.2909651368        1.4597383707        0.6386057525
 N          3.2362139787        1.8717588049       -1.0511816485
 S          4.2635858646        1.8152767366        0.2708691724
 O          3.4965482229        1.8993682276        1.4856504506
 O          5.2380710711        2.8572734814        0.0421211455
 C          5.0455650949        0.2164646541        0.1429730116
 C          4.3702457986       -0.8950449141        0.6065130482
 C          4.9438655972       -2.1454161247        0.4386003813
 C          6.1754286590       -2.2620653465       -0.1876942492
 C          6.8419883920       -1.1358159642       -0.6466129395
 C          6.2710924586        0.1165322576       -0.4862218952
 H          6.7545504687        1.0191145812       -0.8238390499
 H          7.8010859260       -1.2298840866       -1.1300190085
 H          6.6180604928       -3.2371583125       -0.3166134790
 H          4.4237067071       -3.0196884165        0.7962279766
 H          3.4173171740       -0.7679063929        1.0930497172
 H          3.7827403318        1.9990079642       -1.8919686825
 H          3.0261888276        0.0494622130       -2.9930982340
 H          1.3198163860       -1.7308812671       -3.1065708010
 H         -0.3741380673       -1.9405875517       -1.3264192607
 H         -0.7021806137        0.5943828480        1.4078675594
 C         -0.3672428983       -1.4579056082        1.8759037766
 C          0.7484234610       -2.4373677355        1.6830390221
 C          0.8816973934       -1.3456003499        2.6996298201
 H          0.8354434737       -1.6027570820        3.7471966848
 H          1.5445777497       -0.5190636149        2.4841650156
 H          0.5886026870       -3.4477841493        2.0268338787
 H          1.3319867410       -2.3732337197        0.7779029642
 H         -1.2511024331       -1.8307700545        2.3820570275
