  62
        -98.93452694
 C          2.2765348409        1.1110537200        0.1139739726
 C          3.5270175773        1.0425655016        0.7826661600
 C          4.5261901402        0.1204123137        0.2240053238
 C          4.2030107642       -0.6152771683       -0.8544739084
 C          5.0744396067       -1.6592036883       -1.4929825154
 C          5.0485667549       -2.9522976733       -0.6531638460
 C          6.3886746793       -3.3149907020       -0.0126318811
 H          6.1984646822       -4.1049421992        0.7170550123
 H          7.0480634010       -3.7267862078       -0.7795707663
 C          7.1318970328       -2.1669203206        0.6770491398
 H          7.9103198632       -2.6187116864        1.2955319301
 H          7.6430976494       -1.5589583020       -0.0708420817
 C          6.2760006556       -1.2464310961        1.5566302148
 H          5.3798512364       -1.7649984415        1.8981517233
 H          6.8551217877       -0.9927478146        2.4468049141
 C          5.8731928334        0.0830541425        0.8916604250
 H          6.6437698479        0.3809801144        0.1751363410
 H          5.8240324795        0.8574096635        1.6628655048
 H          4.2894261349       -2.8405068546        0.1241027753
 H          4.7319406019       -3.7869788167       -1.2805794869
 H          4.6779121051       -1.8468039523       -2.4911039768
 H          6.0908409540       -1.2829111699       -1.5861297092
 O          2.9873442563       -0.5448105527       -1.4532515111
 C          1.9919468311        0.3113899384       -0.9942882212
 O          0.9430245135        0.2530274741       -1.6629884809
 O          3.7962151165        1.7274440478        1.8052173825
 C          1.2348156371        2.0520142782        0.6964570706
 C         -0.0632823246        1.3154495120        0.9010633937
 C         -0.2109097624        0.4844816823        2.0076401974
 C         -1.3726927830       -0.2402345102        2.1949676478
 C         -2.4061090706       -0.1605752754        1.2775984544
 C         -2.2588011041        0.6481678152        0.1592442838
 C         -1.1015010724        1.3968047806       -0.0123744102
 H         -0.9915839102        2.0136695990       -0.8906008886
 N         -3.2946322688        0.7302446514       -0.7851180232
 S         -4.1072909332       -0.6652162264       -1.2369914182
 O         -3.2806466948       -1.8448080942       -1.1307185603
 O         -4.6495299381       -0.3737051690       -2.5466370793
 C         -5.4522187315       -0.7561954826       -0.0702649000
 C         -5.6882715333       -1.9291371502        0.6195226656
 C         -6.7486421806       -1.9819152886        1.5111139023
 C         -7.5509978320       -0.8666324060        1.6957745911
 C         -7.3028146916        0.3032164469        0.9932610201
 C         -6.2455978847        0.3616851561        0.0995154395
 H         -6.0212792137        1.2498145922       -0.4670321625
 H         -7.9289742707        1.1686188318        1.1392835454
 H         -8.3745551991       -0.9096081239        2.3909197304
 H         -6.9429922328       -2.8910992747        2.0571634644
 H         -5.0347571406       -2.7699356154        0.4478748715
 H         -3.0535979899        1.2805113716       -1.5969340175
 H         -3.3081771675       -0.7354798988        1.4085240834
 H         -1.4755817991       -0.8773921277        3.0602566202
 H          0.6031705347        0.4063206405        2.7151220547
 H          1.6362457423        2.3166863581        1.6878652510
 C          1.0619855292        3.3610518040       -0.0596938509
 C          2.2542453895        4.0754297432       -0.6205875058
 C          1.2302692979        3.4881926439       -1.5428325626
 H          0.5732034364        4.1631039632       -2.0725096756
 H          1.4859812637        2.6032450618       -2.1041292766
 H          2.3072913344        5.1492320780       -0.5238066431
 H          3.2109211488        3.5799899818       -0.5405971393
 H          0.2956668115        3.9832232645        0.3931076393
