  62
        -98.93723595
 C         -1.5094123699       -1.5690929745        0.2202936777
 C         -1.7408766100       -0.3843215669        0.9668684140
 C         -3.0325207788        0.2841757786        0.7622441131
 C         -3.9185232358       -0.2433848437       -0.1015834552
 C         -5.3214069526        0.2348112658       -0.3706708895
 C         -5.4703284264        1.6332471519       -0.9985206300
 C         -5.6671468046        2.7634777804        0.0191184768
 H         -6.4128627030        3.4604253290       -0.3686781870
 H         -6.0802852000        2.3422425492        0.9365280170
 C         -4.4174419985        3.5834793816        0.3505990117
 H         -4.2256876162        4.2855570001       -0.4639865273
 H         -4.6296465706        4.1702855845        1.2469220856
 C         -3.1348487979        2.7823674299        0.5754010291
 H         -2.3860365868        3.4615928905        0.9888111624
 H         -2.7503138486        2.4317660957       -0.3855089969
 C         -3.2882502389        1.5636459922        1.5060854040
 H         -2.5474338694        1.6100465480        2.3073820517
 H         -4.2791960531        1.5489944790        1.9585192145
 H         -4.6129704297        1.8390348236       -1.6384712854
 H         -6.3515119595        1.5968634887       -1.6410566702
 H         -5.7525997243       -0.5062346667       -1.0470191426
 H         -5.8848028040        0.1977252890        0.5648746595
 O         -3.6440683221       -1.3592143640       -0.8268882697
 C         -2.4422265351       -2.0414428137       -0.7038916716
 O         -2.3553472234       -3.0249865239       -1.4643513992
 O         -0.9078940598        0.0822079260        1.7902172304
 C         -0.2002941898       -2.2918358654        0.4861071043
 C          0.8716563618       -1.9051298675       -0.5045538396
 C          0.7096150753       -2.1067382121       -1.8713399160
 C          1.7154301117       -1.7531262063       -2.7517399124
 C          2.8900360673       -1.1822447610       -2.2923569701
 C          3.0619974160       -0.9777838522       -0.9287127351
 C          2.0567555918       -1.3497893529       -0.0460256817
 H          2.2086937159       -1.1941371502        1.0109985087
 N          4.2482443931       -0.4161865328       -0.4299563752
 S          4.1893002972        0.7626226703        0.7582394992
 O          5.5166886379        1.3374398540        0.7541740574
 O          3.7528753118        0.1864142458        2.0035463345
 C          3.0147561845        1.9559085002        0.1464985423
 C          3.4826689702        2.9236457390       -0.7229724092
 C          2.5882613232        3.8271602791       -1.2713093750
 C          1.2407288117        3.7411276050       -0.9533418053
 C          0.7885616826        2.7640893458       -0.0814845364
 C          1.6789655418        1.8612986298        0.4788055496
 H          1.3315662588        1.1034888530        1.1627696851
 H         -0.2559671660        2.6828419246        0.1733786557
 H          0.5398899787        4.4396460882       -1.3829085865
 H          2.9408274304        4.5915226784       -1.9449679893
 H          4.5387203194        2.9595793662       -0.9369365051
 H          4.9215055855       -0.1698068920       -1.1412414205
 H          3.6707836398       -0.9026079076       -2.9831926140
 H          1.5808984646       -1.9173160702       -3.8102134005
 H         -0.2100933910       -2.5408612982       -2.2327194608
 H          0.1266274302       -1.9388305716        1.4744134884
 C         -0.3373860380       -3.8011077593        0.5453158268
 C          0.7034842068       -4.5922363500        1.2766322423
 C         -0.6757966286       -4.4581673632        1.8479102158
 H         -1.3275222629       -5.3188280986        1.8360495536
 H         -0.8101178950       -3.8213778203        2.7104916787
 H          1.0023843181       -5.5472051987        0.8726631901
 H          1.5049778533       -4.0464447856        1.7522389077
 H         -0.7591515877       -4.2316022144       -0.3532288866
