  62
        -98.94575390
 C          0.9322159412        1.7438563690        0.0646674905
 C          2.1391082909        1.5034441479        0.7666693308
 C          3.0471056604        0.5094900475        0.1802806206
 C          2.6839738903       -0.1243337618       -0.9492762997
 C          3.5164224798       -1.1546734320       -1.6573292399
 C          3.2044271987       -2.5812409720       -1.1842608106
 C          3.1469603781       -2.7349436026        0.3356784293
 H          2.9324028673       -3.7852229826        0.5486881588
 H          2.3069989384       -2.1576257322        0.7332360793
 C          4.4350712582       -2.3219211738        1.0614767999
 H          5.2675391684       -2.3042497841        0.3565677101
 H          4.6648777175       -3.0754260943        1.8178387196
 C          4.3554667289       -0.9765163740        1.7849688504
 H          5.2204779587       -0.8962539049        2.4490263607
 H          3.4591901187       -0.9520969537        2.4112149901
 C          4.3515426300        0.2653025463        0.8843769909
 H          5.1741351201        0.2028239061        0.1685670811
 H          4.5158217604        1.1390152960        1.5220847013
 H          3.9674638683       -3.2509861524       -1.5858806407
 H          2.2397603086       -2.8864904812       -1.5946014710
 H          4.5683518699       -0.9317214328       -1.4868863495
 H          3.3106966201       -1.0829198015       -2.7267736400
 O          1.4974830706        0.0951871793       -1.5684466800
 C          0.5788568711        1.0112218797       -1.0693524299
 O         -0.4786151387        1.0722554607       -1.7215911102
 O          2.4473397209        2.1019257272        1.8333583711
 C         -0.0258484483        2.7686684494        0.6419155907
 C         -1.4235770387        2.2060343903        0.7182606500
 C         -2.5590703181        2.8968361712        0.3149195200
 C         -3.8122374085        2.3236136520        0.4454967294
 C         -3.9600410395        1.0499435919        0.9615699388
 C         -2.8289579101        0.3470329610        1.3605106889
 C         -1.5798251097        0.9329495902        1.2530021995
 H         -0.7114495401        0.3761007995        1.5746965395
 N         -2.9274459411       -0.9577976992        1.8797828583
 S         -1.8960264818       -2.1284107696        1.2847669881
 O         -2.5247912727       -3.3798875993        1.6586303574
 O         -0.5604983318       -1.9303736207        1.7917461786
 C         -1.9094146211       -1.9743789889       -0.4915998518
 C         -3.1005392108       -1.7507665078       -1.1524076721
 C         -3.0913440303       -1.6611156972       -2.5342050020
 C         -1.9015720902       -1.8057178877       -3.2297398818
 C         -0.7170195206       -2.0430499488       -2.5531409115
 C         -0.7204826010       -2.1265385794       -1.1710458216
 H          0.1799431887       -2.2895523002       -0.6000605614
 H          0.2111784795       -2.1435218192       -3.0929771413
 H         -1.8951639199       -1.7270300973       -4.3054565017
 H         -4.0110844300       -1.4721285364       -3.0642307222
 H         -4.0156619809       -1.6457797074       -0.5930139023
 H         -3.8703850214       -1.3138133486        1.9460609779
 H         -4.9374882398        0.6017197725        1.0564259784
 H         -4.6855038080        2.8734998428        0.1296063394
 H         -2.4656351973        3.8804571214       -0.1143517296
 H          0.3271318015        2.9133379487        1.6779630808
 C          0.0424160629        4.1335012896       -0.0300934187
 C          1.2297127734        4.5416521792       -0.8488642882
 C         -0.0892148466        4.2949119803       -1.5141650287
 H         -0.6377983159        5.1455735109       -1.8913675085
 H         -0.2097934470        3.3978641607       -2.1004522891
 H          1.5844309940        5.5579678489       -0.7627833377
 H          2.0175537729        3.8154760787       -0.9888070583
 H         -0.3974750168        4.9124033197        0.5851458715
