  62
        -98.93895999
 C          2.0357185949        1.0566352949       -0.2251730239
 C          2.3776934356        0.2821965015        0.9131009274
 C          2.5876290421       -1.1528149504        0.6971926805
 C          2.3933534646       -1.6609159962       -0.5327529816
 C          2.5830997699       -3.1024046790       -0.9063744879
 C          4.0157290035       -3.3726838312       -1.3871122173
 C          5.0930243549       -2.8184665311       -0.4548888423
 H          6.0617910833       -3.0915678598       -0.8785024070
 H          5.0357502930       -1.7276366624       -0.4565075773
 C          5.0039210563       -3.3274779611        0.9904987285
 H          6.0051413777       -3.6048524769        1.3265667149
 H          4.3874903664       -4.2261420467        1.0289462629
 C          4.4658945318       -2.3026282827        1.9907597465
 H          4.6485373326       -2.6830013977        2.9991998795
 H          5.0188709912       -1.3656437945        1.8886064616
 C          2.9676493047       -1.9896780920        1.8861947349
 H          2.3928868568       -2.9183747020        1.8989976764
 H          2.6858750304       -1.4015148923        2.7645918962
 H          4.1420640688       -2.9123538194       -2.3697230236
 H          4.1449779645       -4.4509215396       -1.4970372015
 H          2.3516468352       -3.7250154449       -0.0440430720
 H          1.8840474788       -3.3401061065       -1.7104005410
 O          2.0459496050       -0.8980599690       -1.5979768283
 C          1.8464294382        0.4746708661       -1.4791799828
 O          1.5351011730        1.0219468372       -2.5529991938
 H         -0.5102836594        1.2399290605       -0.7180052070
 C         -0.6758104032        1.8858326302        0.1323565151
 C          0.3679887917        2.6432276985        0.6437865962
 C          0.1207161323        3.4706018218        1.7326620021
 C         -1.1397965398        3.5256978852        2.3011798689
 C         -2.1667444216        2.7375892644        1.8144478097
 C         -1.9290908079        1.9082636195        0.7238003383
 N         -2.9392040240        1.0848308383        0.2001402299
 S         -2.4760556238       -0.4433747212       -0.3622879898
 O         -1.4594332125       -1.0039022423        0.4990398152
 O         -2.1570015971       -0.3424149702       -1.7641951607
 C         -4.0101905376       -1.3327096280       -0.1650455169
 C         -4.2079688945       -2.0942931598        0.9711644350
 C         -5.4169603677       -2.7523075063        1.1352179383
 C         -6.4033304576       -2.6350594946        0.1674513891
 C         -6.1899209275       -1.8676147482       -0.9681357444
 C         -4.9829826237       -1.2082134727       -1.1391177559
 H         -4.7662807799       -0.6084696136       -2.0077699027
 H         -6.9576206511       -1.7811950825       -1.7199293961
 H         -7.3432354968       -3.1475858063        0.2977644077
 H         -5.5838205271       -3.3521959213        2.0152696502
 H         -3.4081806477       -2.1610838875        1.6914045906
 H         -3.7549890424        1.0333565149        0.7954095003
 H         -3.1424058513        2.7574711256        2.2755773460
 H         -1.3186424202        4.1709928000        3.1477006925
 H          0.9300852400        4.0519582976        2.1490622877
 C          1.7476351834        2.5241751667        0.0429155149
 H          2.4666503987        2.8268139443        0.8224222233
 C          1.9553160033        3.4420497030       -1.1500473298
 C          0.8235558274        3.9938152992       -1.9583364607
 C          1.6025488688        4.8971746686       -1.0528604104
 H          2.2721884089        5.6187834321       -1.4952790443
 H          1.1174370695        5.2349365623       -0.1498965656
 H          0.9630149589        4.0691364940       -3.0256877909
 H         -0.1811423307        3.7203439983       -1.6740902391
 H          2.8577317146        3.1936977507       -1.6984485533
 O          2.5066986726        0.7823077220        2.0644026369
