  62
        -98.94384038
 C         -1.8552528201       -0.0425189148        1.0760507298
 C         -2.0676456820        0.3518119391       -0.2666919543
 C         -3.4681612747        0.5895397165       -0.6483807992
 C         -4.4376313509        0.4472964628        0.2738032797
 C         -5.9059305007        0.6074755264        0.0075358841
 C         -6.5480703224       -0.7299024057       -0.3868838845
 C         -5.7891524589       -1.4796871593       -1.4816689551
 H         -4.8147173911       -1.7858532888       -1.0944474642
 H         -6.3494494117       -2.3913003999       -1.7000719439
 C         -5.5893676348       -0.6801880991       -2.7768077516
 H         -5.8184639237       -1.3264725495       -3.6267478344
 H         -6.2888155514        0.1559490239       -2.8083602399
 C         -4.1668091641       -0.1575001818       -2.9863814542
 H         -4.0825950050        0.1974672744       -4.0171306325
 H         -3.4529673563       -0.9761288211       -2.8642734284
 C         -3.7369823958        0.9953354579       -2.0701251119
 H         -2.7898258460        1.3886128750       -2.4521628884
 H         -4.4805945516        1.7941403870       -2.1101231320
 H         -7.5706577615       -0.5377203924       -0.7165652029
 H         -6.5902710992       -1.3679708052        0.4987607668
 H         -6.0479541509        1.3391363202       -0.7854300366
 H         -6.3824730763        0.9744862604        0.9180952938
 O         -4.1905074603        0.0914663172        1.5603399592
 C         -2.8999881143       -0.1685172132        1.9915871536
 O         -2.8134509273       -0.4901821529        3.1939312941
 O         -1.1394427711        0.4978557121       -1.1045243486
 C         -0.4483560136       -0.3284022633        1.5695816052
 C          0.4241768698        0.8911538540        1.3971756142
 C         -0.0331031130        2.1144313393        1.8818947342
 C          0.7380121500        3.2537429346        1.7651367989
 C          1.9821564932        3.1986752009        1.1609092740
 C          2.4523538712        1.9834640052        0.6803200074
 C          1.6775585579        0.8376659189        0.8079930704
 H          2.0608013190       -0.0940536851        0.4283727370
 N          3.7296945174        1.8871883429        0.1072287914
 S          3.9714545790        0.9785586436       -1.2801505966
 O          5.2305005563        1.4678630437       -1.8039168166
 O          2.8445485456        1.0465490421       -2.1789301581
 C          4.2126640066       -0.6862383131       -0.6987673306
 C          5.1166867858       -0.9059699184        0.3218941793
 C          5.3416698595       -2.2052893422        0.7472932500
 C          4.6696663910       -3.2573008163        0.1431566796
 C          3.7670197576       -3.0197788488       -0.8825393742
 C          3.5341296998       -1.7216234921       -1.3099883722
 H          2.8313681519       -1.4887310457       -2.0947944420
 H          3.2429462617       -3.8381500536       -1.3507549594
 H          4.8468306094       -4.2684626288        0.4743894935
 H          6.0401851570       -2.3949531728        1.5461271972
 H          5.6235274759       -0.0636186810        0.7617663406
 H          4.2323960760        2.7617857432        0.0557081721
 H          2.5841592466        4.0895184101        1.0630860837
 H          0.3672593504        4.1950289423        2.1425288986
 H         -1.0072915379        2.1577310255        2.3504913746
 H         -0.5435022759       -0.5231139263        2.6482223558
 C          0.1050817294       -1.5692518602        0.9009209929
 C          1.0934889692       -2.4311739663        1.6257004179
 C         -0.3101829208       -2.9127683559        1.4176414604
 H         -0.4854171179       -3.7061670027        0.7067699524
 H         -0.9794354823       -2.9309956622        2.2657621353
 H          1.8863299663       -2.8958571477        1.0596326842
 H          1.3807578613       -2.1277355444        2.6209307979
 H          0.2088950197       -1.4547658124       -0.1724637039
