  62
        -98.94364953
 C          1.7651362222       -1.1022187157       -0.5898233973
 C          1.9067728629       -0.2624323826        0.5414534533
 C          3.2849214530       -0.0455911695        0.9999844792
 C          4.3053253234       -0.6542797200        0.3689478054
 C          5.7614513244       -0.5460489588        0.7326408861
 C          6.4602086848        0.6875781350        0.1445702148
 C          6.0801561689        2.0205627822        0.7906635235
 H          6.1994406749        1.9457836918        1.8719520903
 H          6.7961463560        2.7641383229        0.4347885767
 C          4.6611670246        2.5038056598        0.4592132940
 H          4.2861531838        1.9635226619       -0.4131432659
 H          4.6904364415        3.5620910687        0.1900586821
 C          3.6566619986        2.3544186469        1.6018946593
 H          3.9498485207        2.9992031148        2.4333609649
 H          2.6793507029        2.6876046740        1.2433039601
 C          3.5044377308        0.9200820583        2.1249536117
 H          4.3802169219        0.6362720234        2.7079721376
 H          2.6238464670        0.8825635730        2.7705006654
 H          6.2514263735        0.7294588365       -0.9270272294
 H          7.5360085435        0.5423528948        0.2674406479
 H          5.8696961059       -0.5444589990        1.8175031885
 H          6.2485709230       -1.4392005368        0.3354862876
 O          4.1218689698       -1.4780400592       -0.6980397313
 C          2.8566507369       -1.6996472553       -1.2185380806
 O          2.8360230740       -2.4366274813       -2.2259677459
 H         -2.1063283882       -0.3839249669       -0.4950734042
 C         -1.5328545312        0.3021236468       -1.0933672109
 C         -0.2642560523       -0.0460236321       -1.5262979243
 C          0.4418546994        0.8559974302       -2.3187939699
 C         -0.1045549818        2.0795560256       -2.6521468973
 C         -1.3664746057        2.4302211258       -2.2044122380
 C         -2.0824268476        1.5356055418       -1.4183258985
 N         -3.3394460821        1.8836077835       -0.9155330298
 S         -4.4929024591        0.7578028952       -0.4998785181
 O         -4.5870802351       -0.3013128407       -1.4778222909
 O         -5.6952050812        1.5397256626       -0.3034812255
 C         -3.9552340629        0.1016107079        1.0655928674
 C         -3.3863927504        0.9503752494        1.9935076195
 C         -2.9820587170        0.4323546990        3.2132012032
 C         -3.1561886311       -0.9157845232        3.4852439667
 C         -3.7368695550       -1.7538108440        2.5460216068
 C         -4.1426717640       -1.2418182921        1.3241240095
 H         -4.5893737351       -1.8581490661        0.5596757927
 H         -3.8704030215       -2.8025515165        2.7595907292
 H         -2.8345476335       -1.3166078557        4.4336602363
 H         -2.5251376548        1.0797429873        3.9441938438
 H         -3.2558780538        1.9912199004        1.7489711752
 H         -3.7243709981        2.7583651643       -1.2360808676
 H         -1.7906054969        3.3902207320       -2.4561524899
 H          0.4558153548        2.7694428687       -3.2653826808
 H          1.4305063754        0.5839547013       -2.6643177208
 C          0.3838726487       -1.3601810527       -1.1645135978
 H          0.5376926587       -1.9336951934       -2.0903948751
 C         -0.4319159822       -2.1967543104       -0.2010287102
 C         -1.5256446616       -3.0838871801       -0.7117369058
 C         -0.2509419293       -3.6837598489       -0.2011171241
 H         -0.2683572441       -4.2052885447        0.7438269443
 H          0.4447636710       -4.0985930360       -0.9162419610
 H         -2.4191756918       -3.1939001951       -0.1165232180
 H         -1.7057936251       -3.0949867042       -1.7762522190
 H         -0.5734059441       -1.7101196103        0.7575548647
 O          0.9397436405        0.2768544495        1.1374562786
