  62
        -98.93949875
 C         -2.2822814380       -0.8825542074        0.6367595319
 C         -3.4284565963       -0.9064642270       -0.1956731778
 C         -4.4620102331        0.0975082024        0.1028891068
 C         -4.2733154345        0.9690347908        1.1090632963
 C         -5.2171290325        2.0763747984        1.4769414191
 C         -4.8721017544        3.3736436757        0.7322542688
 C         -4.6774521086        3.1898366278       -0.7729127781
 H         -4.4698474373        4.1752162929       -1.1958452599
 H         -3.7909791243        2.5743970709       -0.9443940473
 C         -5.8776295953        2.5644278187       -1.4974352785
 H         -6.7707441439        2.6519947516       -0.8777862224
 H         -6.0631724651        3.1259539341       -2.4154178785
 C         -5.6823455159        1.1019986166       -1.9011859647
 H         -4.7385020550        0.9941563297       -2.4413824994
 H         -6.4869911800        0.8289389466       -2.5889674650
 C         -5.6983455541        0.0860135716       -0.7523365378
 H         -6.5898981405        0.2358251884       -0.1404031647
 H         -5.7473386454       -0.9133987312       -1.1939383391
 H         -5.6693215720        4.0970969458        0.9125816584
 H         -3.9461862834        3.7762873985        1.1498918975
 H         -6.2350816564        1.7707397499        1.2429640612
 H         -5.1374521635        2.2522301611        2.5510392700
 O         -3.1608028182        0.9645749295        1.8881022959
 C         -2.1485692968        0.0460856960        1.6740789801
 O         -1.1941716682        0.1479142890        2.4731129809
 O         -3.6073915255       -1.7152294956       -1.1440629691
 C         -1.1201935421       -1.8519167466        0.4841616168
 C         -0.1840910531       -1.4234240581       -0.6212306776
 C         -0.5933045511       -1.3863598420       -1.9502685588
 C          0.2885157161       -0.9949426156       -2.9406376639
 C          1.5884175531       -0.6381540030       -2.6290128292
 C          2.0101119284       -0.6797314843       -1.3048141935
 C          1.1217015403       -1.0694292443       -0.3122127379
 H          1.4526015321       -1.0774322079        0.7157453121
 N          3.3422208186       -0.3728944225       -0.9760539107
 S          3.6913272676        0.3795158976        0.4934234095
 O          3.6102857073       -0.5991212447        1.5481765705
 O          2.8872121776        1.5717270720        0.6479277367
 C          5.3989996147        0.8112261595        0.2138627444
 C          6.3507355662       -0.1871286007        0.3058678393
 C          7.6779401819        0.1278931764        0.0626217171
 C          8.0301104011        1.4286130316       -0.2666628743
 C          7.0645900306        2.4201351713       -0.3527979699
 C          5.7346454491        2.1113049936       -0.1122498694
 H          4.9507008739        2.8500177945       -0.1605766180
 H          7.3415138435        3.4309154334       -0.6056638386
 H          9.0639949890        1.6715770317       -0.4545413638
 H          8.4316130731       -0.6398230084        0.1313910774
 H          6.0306656608       -1.1804146652        0.5738290671
 H          3.8328380125        0.0791094554       -1.7362657051
 H          2.2744528540       -0.3332073687       -3.4047894102
 H         -0.0413379849       -0.9637755531       -3.9682010934
 H         -1.6100936926       -1.6523968483       -2.1942089974
 H         -0.5609448777       -1.7899749059        1.4283350617
 C         -1.5606181408       -3.2900541682        0.2854806863
 C         -0.5932410774       -4.3889907077        0.6011705039
 C         -1.7826923931       -4.1597668384        1.4839534042
 H         -2.5916944383       -4.8742105040        1.4587936593
 H         -1.6182462362       -3.7200192075        2.4574682624
 H         -0.5830692953       -5.2635401257       -0.0308459522
 H          0.3788182811       -4.1046973712        0.9767160789
 H         -2.2237154256       -3.4257531806       -0.5581206057
