  62
        -98.93871841
 C         -1.9648165694       -0.8585388796       -0.4304727505
 C         -3.0420972094       -1.1557049405        0.4384783693
 C         -4.3318876194       -0.4925647003        0.1673434499
 C         -4.4125440696        0.3614490606       -0.8699462393
 C         -5.5937322497        1.1804556808       -1.3191652486
 C         -5.8523044697        2.3958433200       -0.4155790175
 C         -5.7941413596        2.1050458288        1.0814735122
 H         -4.8083674696        1.7083917286        1.3311178219
 H         -5.9026075897        3.0567633283        1.6083999731
 C         -6.8720374495        1.1569054882        1.6018800215
 H         -6.7808504095        1.1307461373        2.6907345314
 H         -7.8557791496        1.5662558083        1.3617550219
 C         -6.8029148794       -0.2830806513        1.0872414702
 H         -7.2143902595       -0.3645762905        0.0846969502
 H         -7.4424329193       -0.8903107320        1.7344206697
 C         -5.4127641994       -0.9086077713        1.1358984296
 H         -5.5135960593       -1.9935741612        1.0122905987
 H         -4.9921434193       -0.7725832421        2.1387290397
 H         -6.8281865698        2.8127286202       -0.6706488471
 H         -5.0941789098        3.1508297503       -0.6385668469
 H         -5.3608994797        1.5387343917       -2.3245037883
 H         -6.4791082096        0.5554136808       -1.3875544191
 O         -3.3437101896        0.6290097813       -1.6727807691
 C         -2.1060785096        0.0411418513       -1.4859902297
 O         -1.2473876896        0.3935164521       -2.3181240194
 O         -2.9370071793       -1.9498887613        1.4114643586
 C         -0.6288843694       -1.5316327497       -0.1629708811
 C          0.3398016006       -0.5038367601        0.3665418797
 C          0.3739991706       -0.2296841113        1.7305278200
 C          1.2377332305        0.7228085384        2.2394808408
 C          2.0843499304        1.4232309392        1.3983258513
 C          2.0496289804        1.1631557703        0.0348663511
 C          1.1916762205        0.1975431907       -0.4733484997
 H          1.1631067304        0.0170651916       -1.5362360698
 N          2.9173060003        1.8669721412       -0.8225058383
 S          4.5439604303        1.8051149110       -0.4284297384
 O          4.8280208203        2.7753109201        0.5995457224
 O          5.2547967303        1.9805709721       -1.6754407283
 C          4.7830992105        0.1568840704        0.2125798801
 C          4.5846003406       -0.9072908189       -0.6448631408
 C          4.7016991407       -2.1961606993       -0.1517699319
 C          5.0097867308       -2.3980632204        1.1849954479
 C          5.2092255707       -1.3194296711        2.0321356088
 C          5.0920426006       -0.0275467007        1.5444835600
 H          5.2347240805        0.8392509588        2.1687039607
 H          5.4497426308       -1.4798996320        3.0706981287
 H          5.0948203209       -3.4031845707        1.5669748970
 H          4.5468328607       -3.0372436487       -0.8083230426
 H          4.3508880605       -0.7150857580       -1.6797741806
 H          2.7711344503        1.6561249620       -1.7990438185
 H          2.7659628604        2.1697536689        1.7731106819
 H          1.2535181706        0.9224601875        3.3000355309
 H         -0.2942293693       -0.7690135519        2.3869375595
 H         -0.8277146893       -2.2528331204        0.6409128283
 C         -0.1047419294       -2.2795715586       -1.3720155318
 C          1.0662759907       -3.2004898387       -1.2064287126
 C         -0.2995114892       -3.7621060286       -1.4604967830
 H         -0.5087650292       -4.1965878278       -2.4266475634
 H         -0.8128494192       -4.2483594693       -0.6441001334
 H          1.7963813207       -3.2507459379       -1.9995517627
 H          1.4822376708       -3.3005316495       -0.2154466527
 H         -0.1796343894       -1.7163077178       -2.2939755813
