  62
        -98.93452815
 C         -2.3326810825       -1.3121534132        0.3244740156
 C         -2.5980402033       -0.2824983586       -0.6066763810
 C         -3.7107704898        0.6348197110       -0.2841454522
 C         -4.3759942167        0.4846545083        0.8744747409
 C         -5.5305521180        1.2866838630        1.4197273098
 C         -5.4434109504        2.8139879756        1.2778714292
 C         -6.4253484254        3.3872892221        0.2545160103
 H         -7.3726324550        2.8515669871        0.3443415289
 H         -6.6181275698        4.4332871962        0.5030515579
 C         -5.9536862098        3.3374887785       -1.1976843790
 H         -5.1574397736        4.0704811082       -1.3447745030
 H         -6.7930374904        3.6393115532       -1.8286829586
 C         -5.4478372571        1.9742592728       -1.6735415665
 H         -5.5307588663        1.9486170312       -2.7622790907
 H         -6.0812171340        1.1759833423       -1.2883580549
 C         -3.9803257560        1.7022331574       -1.3101261635
 H         -3.4372275259        1.3736653412       -2.2017186458
 H         -3.4964282593        2.6297010182       -0.9904065222
 H         -5.6783713643        3.2512840883        2.2496314004
 H         -4.4239539196        3.1065240640        1.0314707242
 H         -6.4520606156        0.9238581891        0.9574086365
 H         -5.5864052211        1.0153215887        2.4764143765
 O         -4.0737470233       -0.5113726071        1.7549388043
 C         -3.0745687648       -1.4285481034        1.5046265839
 O         -2.9402346788       -2.2924371574        2.3936518442
 O         -1.9524086051       -0.1092689509       -1.6772466637
 C         -1.2565867402       -2.3700636990        0.1320123797
 C          0.1196797759       -1.8491647629        0.4733373722
 C          0.8618581564       -2.4232511284        1.4988009027
 C          2.1335588252       -1.9624117565        1.7911310245
 C          2.6888899459       -0.9195366018        1.0715650695
 C          1.9545773740       -0.3371833363        0.0468237642
 C          0.6824592523       -0.8063567949       -0.2484758811
 H          0.1136582217       -0.3486203888       -1.0444621867
 N          2.4981010947        0.7397151930       -0.6763552394
 S          4.0271106471        0.5508557997       -1.3431433509
 O          4.0816631372        1.4865944240       -2.4449848914
 O          4.3003134884       -0.8318848249       -1.6609699646
 C          5.1267991575        1.1078771658       -0.0577660046
 C          6.1402336573        0.2815712215        0.3868951017
 C          6.9918302315        0.7401547318        1.3800264628
 C          6.8165388737        2.0105049303        1.9069535372
 C          5.7954545643        2.8291779411        1.4474265871
 C          4.9413867011        2.3771499484        0.4542435219
 H          4.1384301122        2.9824085624        0.0675492776
 H          5.6623282125        3.8164877728        1.8596297735
 H          7.4795807055        2.3650847545        2.6802551040
 H          7.7863445165        0.1054982222        1.7383393495
 H          6.2344141469       -0.7004121711       -0.0486558325
 H          1.8579468204        1.1219995416       -1.3581321879
 H          3.6782992530       -0.5557122331        1.2960209303
 H          2.6981729689       -2.4182974493        2.5900705974
 H          0.4304504834       -3.2299582071        2.0735669309
 H         -1.4983783852       -3.1639119364        0.8513110136
 C         -1.2652654849       -2.9722596054       -1.2607955087
 C         -0.6619466588       -4.3268683087       -1.4706709562
 C         -2.1481012890       -4.1475337367       -1.5472374873
 H         -2.6288205328       -4.2076157537       -2.5121341718
 H         -2.7500208581       -4.5293343459       -0.7352170267
 H         -0.1164573600       -4.5109376418       -2.3836190316
 H         -0.2566143452       -4.8332717049       -0.6077611616
 H         -1.1430288262       -2.2398455229       -2.0478475354
