  62
        -98.93805556
 C         -2.4498977425       -1.1978221464       -0.0675288846
 C         -3.2073557269       -0.5074618970        0.9049207463
 C         -4.0607242245        0.5896066903        0.4155946090
 C         -4.0671688699        0.8732548745       -0.8988213610
 C         -4.8192492346        1.9747511360       -1.5936202931
 C         -3.9404921478        3.2291975299       -1.7350603621
 C         -3.9803588300        4.1822216079       -0.5409487502
 H         -3.2216899516        4.9496091915       -0.7113727586
 H         -4.9508127685        4.6819371604       -0.5127408044
 C         -3.7260173602        3.5346657536        0.8229287435
 H         -2.8984879166        2.8264514930        0.7459555845
 H         -3.4134203602        4.3200875581        1.5141073037
 C         -4.9645723656        2.8309941826        1.3977309637
 H         -5.8407212608        3.1247970041        0.8201603428
 H         -5.1360200966        3.1785786276        2.4186641824
 C         -4.8779671142        1.2987548398        1.4611072676
 H         -5.8913719645        0.8837272838        1.4522396383
 H         -4.4280292900        0.9994230456        2.4132658077
 H         -4.2606207125        3.7833676962       -2.6195606481
 H         -2.9128990651        2.8999834008       -1.9102030815
 H         -5.0586712688        1.6043149174       -2.5924541958
 H         -5.7446297354        2.1989614187       -1.0716352179
 O         -3.3086592890        0.1917084650       -1.8009851666
 C         -2.4810922075       -0.8500143242       -1.4179303594
 O         -1.8412725243       -1.3705270104       -2.3498659944
 O         -3.1648210013       -0.7873605369        2.1351484006
 C         -1.5536930718       -2.3414397316        0.3683034732
 C         -0.1124304088       -2.0497002541        0.0273913470
 C          0.7477158433       -2.9952908287       -0.5150014882
 C          2.0660580014       -2.6710785736       -0.7861149746
 C          2.5558664295       -1.4057261053       -0.5224535043
 C          1.7086097888       -0.4551746098        0.0323600726
 C          0.3909852546       -0.7849926034        0.3078563685
 H         -0.2662136108       -0.0425711516        0.7457181592
 N          2.1977649067        0.8377409106        0.2985417060
 S          3.5640223780        0.9627173682        1.2710028140
 O          3.6513395831       -0.1403196768        2.2000794780
 O          3.4960103713        2.2869042554        1.8496946005
 C          4.9211363042        0.9010787018        0.1208533417
 C          4.9659613392        1.8464919382       -0.8849690167
 C          6.0206218303        1.8174423618       -1.7832976146
 C          7.0082203400        0.8513854436       -1.6592583451
 C          6.9506761091       -0.0882845858       -0.6413863879
 C          5.8975702848       -0.0657814588        0.2598515967
 H          5.8073549886       -0.7789685675        1.0635521622
 H          7.7196357683       -0.8380053546       -0.5465540818
 H          7.8276900482        0.8313018747       -2.3602039050
 H          6.0687746506        2.5466057824       -2.5759775833
 H          4.1809217733        2.5819564311       -0.9435134601
 H          1.4857745342        1.4773910865        0.6209482642
 H          3.5789888678       -1.1471607171       -0.7409922844
 H          2.7205358442       -3.4151220391       -1.2136753654
 H          0.3851533291       -3.9870250551       -0.7293595683
 H         -1.6390854781       -2.3787575162        1.4652990391
 C         -2.0584527588       -3.6504009257       -0.2024692767
 C         -1.8486682963       -4.9335654234        0.5428896802
 C         -3.2168819147       -4.3281432980        0.4638131857
 H         -3.9605955451       -4.8066647624       -0.1554280163
 H         -3.6225215992       -3.8589875843        1.3485220952
 H         -1.6551457274       -5.8326069743       -0.0225463316
 H         -1.3272990679       -4.8842277884        1.4869964209
 H         -2.0212339732       -3.6720013021       -1.2858169720
