  62
        -98.94316355
 C          1.2417281188        1.0831489701       -0.0367220096
 C          1.7703015876        0.0597825051        0.7868743454
 C          2.6742377487       -0.8935847027        0.1300243242
 C          2.9390400572       -0.7514477793       -1.1815038640
 C          3.8843968415       -1.6170701753       -1.9622630877
 C          5.3062328589       -1.0383545131       -1.9500102364
 C          5.8077937433       -0.6603020059       -0.5562004660
 H          6.8302675247       -0.2930004385       -0.6679320267
 H          5.2085904731        0.1697656948       -0.1750220393
 C          5.7856266148       -1.8102788686        0.4605505876
 H          5.7181734524       -2.7652504398       -0.0619847617
 H          6.7288684552       -1.8087353719        1.0108968413
 C          4.6644435830       -1.7183671812        1.4971907957
 H          4.8704567298       -2.4474846361        2.2852579054
 H          4.6733638271       -0.7273919182        1.9577250268
 C          3.2488589636       -1.9951342676        0.9754036646
 H          3.2357276094       -2.9437695646        0.4348449764
 H          2.5872922327       -2.0809337686        1.8421214473
 H          5.3203064163       -0.1416556753       -2.5740439517
 H          5.9809834051       -1.7718120218       -2.3953870071
 H          3.8862242217       -2.6196460410       -1.5385984643
 H          3.5322984332       -1.6694435300       -2.9940645670
 O          2.4026734287        0.2361453621       -1.9440960377
 C          1.5414062277        1.1789144980       -1.3956931772
 O          1.1163259478        2.0189648949       -2.2108844688
 H         -0.8288760484        0.0161181156       -0.7654693727
 C         -1.5230276776        0.8375603516       -0.6371025822
 C         -1.1019814736        1.9925028379        0.0054880852
 C         -2.0217835118        3.0250569476        0.1615558235
 C         -3.3176503201        2.8984719078       -0.3070294794
 C         -3.7297838876        1.7425058032       -0.9473408145
 C         -2.8167676584        0.7145109504       -1.1212346287
 N         -3.2389448818       -0.4885486454       -1.7463764960
 S         -4.0202997432       -1.5242149120       -0.6815148761
 O         -4.1753097532       -2.7792005538       -1.3816377301
 O         -5.2299776733       -0.8832947685       -0.2348752145
 C         -2.8770774010       -1.7038527758        0.6747411207
 C         -1.8948944831       -2.6706921252        0.5932498075
 C         -0.9343499652       -2.7364053973        1.5894521692
 C         -0.9636342909       -1.8300345817        2.6380272673
 C         -1.9546296733       -0.8631171162        2.7025383564
 C         -2.9198207150       -0.7930795097        1.7112675245
 H         -3.7028580137       -0.0520591468        1.7228326529
 H         -1.9669533125       -0.1548551962        3.5150966443
 H         -0.2007550111       -1.8643873572        3.3989053411
 H         -0.1578782185       -3.4832676302        1.5391743074
 H         -1.9047952630       -3.3558906062       -0.2401153667
 H         -2.4731503244       -0.9916680361       -2.1739246955
 H         -4.7389592096        1.6158880197       -1.3031805589
 H         -4.0171579758        3.7088805761       -0.1707667407
 H         -1.7191194716        3.9324463359        0.6588775777
 C          0.2903865241        2.0836326352        0.5840240271
 H          0.2231808340        1.7944096565        1.6446667225
 C          0.8563873985        3.4892281037        0.5009132047
 C          0.6906057564        4.4517883346        1.6378123524
 C          2.0318190054        3.8450720124        1.3601746935
 H          2.8087968595        4.4668313142        0.9414313549
 H          2.3977948976        3.0853164284        2.0355814500
 H          0.5457291709        5.4971210896        1.4098854220
 H          0.1594358762        4.1108068609        2.5137455517
 H          0.8409943903        3.8830749017       -0.5089609753
 O          1.4958492122       -0.0513990670        2.0102172537
