  62
        -98.93751080
 C         -2.4376979392       -1.1071419199       -0.0243118168
 C         -3.5209666390       -0.7518844538        0.8152057022
 C         -4.5445044042        0.1368393089        0.2398625708
 C         -4.3975077135        0.5804872953       -1.0225896922
 C         -5.2845211025        1.4590148947       -1.8799495533
 C         -6.4145368449        2.2744119861       -1.2566921510
 C         -5.9562210304        3.4038669598       -0.3347135895
 H         -5.4743725138        4.1741700556       -0.9421267294
 H         -6.8412596213        3.8487293732        0.1253591131
 C         -4.9741240514        3.0029466734        0.7632867645
 H         -4.7327165531        3.9004800588        1.3391545016
 H         -4.0433535675        2.6509547639        0.3134851999
 C         -5.4826349874        1.9465889162        1.7423567268
 H         -6.4323827551        2.2701780331        2.1725672323
 H         -4.7545368873        1.8741359676        2.5547366926
 C         -5.6640707640        0.5348471662        1.1580176368
 H         -5.6485695962       -0.1779635165        1.9875728846
 H         -6.6245422226        0.4331116108        0.6586446908
 H         -6.9632350489        2.7287804382       -2.0862376529
 H         -7.1111435892        1.6202915555       -0.7407183592
 H         -4.6070844812        2.1345012367       -2.4119227232
 H         -5.7147577239        0.7954294274       -2.6382877694
 O         -3.3314497396        0.2145577667       -1.7924515503
 C         -2.3292333208       -0.6200524718       -1.3252045528
 O         -1.4294157010       -0.8431861525       -2.1575740120
 O         -3.6355259908       -1.1682305347        1.9988661484
 C         -1.3581828090       -2.0137438903        0.5426784308
 C         -0.0968973150       -1.2062489581        0.7250985577
 C          0.0328886226       -0.3963876074        1.8502342058
 C          1.1605155466        0.3809148256        2.0349971201
 C          2.1793002643        0.3749752522        1.0977953518
 C          2.0567662333       -0.4236849376       -0.0306198242
 C          0.9290632308       -1.2153892605       -0.2067900995
 H          0.8422775958       -1.8224280008       -1.0943201273
 N          3.0765418206       -0.4141006758       -0.9981363109
 S          4.6515208044       -0.6954959767       -0.4951190102
 O          5.3387717155       -1.2103382029       -1.6594963330
 O          4.6880320294       -1.5222761348        0.6893299486
 C          5.2818584298        0.9277458585       -0.1233942655
 C          5.2269093132        1.8900376780       -1.1126027522
 C          5.7238000141        3.1552243457       -0.8433448282
 C          6.2674968147        3.4341800457        0.4018975572
 C          6.3182569437        2.4562142378        1.3833005357
 C          5.8214374405        1.1888889947        1.1208059040
 H          5.8344219934        0.3986549246        1.8544462029
 H          6.7412577135        2.6751290386        2.3505894196
 H          6.6537877256        4.4198654960        0.6082546757
 H          5.6853495704        3.9185103675       -1.6038411853
 H          4.7993397609        1.6321133887       -2.0673065986
 H          2.8556514057       -0.9542759924       -1.8220643872
 H          3.0601066370        0.9816708156        1.2317150092
 H          1.2478262281        1.0001611295        2.9148050393
 H         -0.7685490172       -0.3819595115        2.5757917885
 H         -1.7194698730       -2.3053026097        1.5382638973
 C         -1.1672010527       -3.2642452728       -0.2896706387
 C         -0.3832445322       -4.4081333787        0.2788977867
 C         -1.8675562272       -4.5264581830        0.1105889143
 H         -2.2486550503       -5.1719633255       -0.6665016609
 H         -2.4862817371       -4.4961973129        0.9953444970
 H          0.2575894965       -4.9744914442       -0.3798983278
 H          0.0086410060       -4.2938919001        1.2784437937
 H         -1.0773595644       -3.0659938457       -1.3509151289
