  62
        -98.94372656
 C         -1.7505868533       -0.4596255047        0.5192676736
 C         -2.9494905282       -0.4191754832        1.2697634325
 C         -4.1831604376       -0.6669676390        0.5154747639
 C         -4.1178785781       -0.9295743686       -0.8027354890
 C         -5.2863776431       -1.2220925058       -1.7046695389
 C         -5.9907260620        0.0323053206       -2.2397348659
 C         -6.8302524332        0.7947329134       -1.2138539056
 H         -7.4357258049        1.5154722526       -1.7670710039
 H         -7.5158487935        0.1043985307       -0.7214348402
 C         -6.0090222256        1.5481919515       -0.1581713425
 H         -4.9774760992        1.6495047177       -0.5037200543
 H         -6.4068953927        2.5586726784       -0.0397609862
 C         -6.0059067107        0.8976233731        1.2252941096
 H         -7.0168584472        0.9103022593        1.6386721716
 H         -5.3665275333        1.4924461809        1.8828512367
 C         -5.4887540400       -0.5468909831        1.2421001181
 H         -5.3187601027       -0.8379409311        2.2816280971
 H         -6.2303100468       -1.2170318249        0.8079277630
 H         -5.2382290980        0.7010122828       -2.6640292167
 H         -6.6490788951       -0.2849375665       -3.0517149031
 H         -4.8900993408       -1.7824966437       -2.5540410405
 H         -6.0071673528       -1.8495859691       -1.1798076588
 O         -2.9423352545       -0.9785313717       -1.4838037197
 C         -1.7338129175       -0.7256513836       -0.8500302679
 O         -0.7410445860       -0.7741127007       -1.5996737440
 O         -2.9866608464       -0.1847762950        2.5078861071
 C         -0.4326875355       -0.1920645018        1.2223310336
 C          0.2581061220        0.9947333447        0.5980072064
 C         -0.4688002919        2.1639679172        0.3855778203
 C          0.1227566776        3.2677381929       -0.1957449377
 C          1.4553685891        3.2346422651       -0.5685619601
 C          2.1930192449        2.0777915352       -0.3521929507
 C          1.5935675615        0.9687399270        0.2305707298
 H          2.1831817633        0.0833181687        0.3949839443
 N          3.5348089243        2.0040729185       -0.7456422397
 S          4.6457160455        1.1046633624        0.1144689325
 O          4.4123463959        1.1839954392        1.5377243386
 O          5.9312460966        1.5909462812       -0.3403713729
 C          4.4275503283       -0.5693604835       -0.4510597815
 C          4.6157249497       -1.6018392521        0.4465457710
 C          4.4796195290       -2.9086098222        0.0054232370
 C          4.1607110634       -3.1587325957       -1.3202000803
 C          3.9793677912       -2.1108528019       -2.2098202002
 C          4.1169879467       -0.8021508192       -1.7758569397
 H          3.9744186482        0.0332826332       -2.4407118027
 H          3.7261378089       -2.3087763436       -3.2389450383
 H          4.0504269449       -4.1760411169       -1.6614525528
 H          4.6198338749       -3.7252349828        0.6959059773
 H          4.8524752127       -1.3604288018        1.4708567475
 H          3.9286022274        2.8549375806       -1.1181207038
 H          1.9185790288        4.0952833743       -1.0266637321
 H         -0.4557337210        4.1648370575       -0.3585508913
 H         -1.5097122856        2.1920338665        0.6785252621
 H         -0.7003187432        0.0738848171        2.2562354956
 C          0.4151616499       -1.4463578638        1.2468539792
 C          1.4128516355       -1.6639072241        2.3436067962
 C          0.1544942001       -2.4762607263        2.3032803258
 H          0.2221498517       -3.5194256192        2.0341015702
 H         -0.6195819246       -2.2605183542        3.0252436524
 H          2.3449920826       -2.1501592858        2.0992764265
 H          1.5039836286       -0.8961756762        3.0973057011
 H          0.6633313145       -1.8002026359        0.2521200011
