  62
        -98.93600425
 C         -1.6840329192       -0.4020218394       -0.2328989609
 C         -2.7987743090       -1.2265971005        0.0599570268
 C         -4.1340240191       -0.6780786800       -0.2332415017
 C         -4.2386935594        0.5728858113       -0.7181937682
 C         -5.4471844495        1.3763371623       -1.1515293960
 C         -6.8575830194        0.9322651909       -0.7722181373
 C         -7.1736074095        1.0123107367        0.7208915029
 H         -8.1637200794        0.5809943560        0.8837650517
 H         -7.2178636898        2.0653323758        1.0103412558
 C         -6.1726904094        0.3226652643        1.6445867110
 H         -6.5170885594        0.4614389413        2.6730531514
 H         -5.2004671595        0.8132050447        1.5628068024
 C         -5.9941911990       -1.1765138350        1.4129536068
 H         -6.9655498789       -1.6730724353        1.4539302354
 H         -5.3848834090       -1.5656916772        2.2330278057
 C         -5.2993044689       -1.5660604612        0.0966405857
 H         -6.0052896489       -1.5952587390       -0.7299913244
 H         -4.8922652987       -2.5742907514        0.2165124829
 H         -7.0523406792       -0.0671143181       -1.1500600801
 H         -7.5451462696        1.6057471722       -1.2911930554
 H         -5.3857997295        1.4372606354       -2.2439523159
 H         -5.2783055398        2.3914472413       -0.7781599132
 O         -3.1380083495        1.3463142922       -0.9469212860
 C         -1.8447988594        0.8984289919       -0.7091939173
 O         -0.9697345996        1.7482276928       -0.9562159849
 O         -2.6843899187       -2.3833775318        0.5452648235
 C         -0.3030117090       -0.9655242599        0.0491773176
 C          0.5413008107        0.0391911082        0.7894427304
 C          0.1807829306        0.3920699745        2.0877848414
 C          0.9197581004        1.3157679627        2.8001587840
 C          2.0486282302        1.8907607045        2.2423691456
 C          2.4154575904        1.5471572582        0.9474142847
 C          1.6632097406        0.6273665900        0.2287511821
 H          1.9416268607        0.4165741029       -0.7893932685
 N          3.5524332403        2.1109688601        0.3542931163
 S          4.4806077905        1.2218643033       -0.7066503962
 O          5.7923376103        1.8305622534       -0.6307909844
 O          3.8822829405        1.1916135868       -2.0171374163
 C          4.5382130808       -0.4272331686       -0.0247838208
 C          4.9603350408       -0.5886772022        1.2801351988
 C          5.0009454111       -1.8642420937        1.8188532852
 C          4.6244786214       -2.9528569816        1.0470839221
 C          4.2121812414       -2.7760021280       -0.2643081574
 C          4.1667779211       -1.5014414465       -0.8068257338
 H          3.8466877411       -1.3176405737       -1.8201825533
 H          3.9222692016       -3.6239412764       -0.8645173298
 H          4.6534463616       -3.9451621228        1.4686995794
 H          5.3239886011       -2.0058944664        2.8375303548
 H          5.2549809906        0.2755199363        1.8526222412
 H          4.1072539601        2.7033030686        0.9531334380
 H          2.6300995801        2.6112641831        2.7971027177
 H          0.6218454603        1.5862737298        3.8019407547
 H         -0.6987152893       -0.0601323169        2.5256744201
 H         -0.4908906689       -1.8145166419        0.7276024052
 C          0.3993539011       -1.5373515163       -1.1727939940
 C         -0.3747955187       -2.1493918934       -2.3003294358
 C          0.3638689310       -0.8630133426       -2.5100683421
 H          1.2602403810       -0.8687034007       -3.1139945921
 H         -0.2024470692        0.0515039075       -2.5956296596
 H          0.0101891615       -3.0465114120       -2.7610581683
 H         -1.4531374687       -2.1138026237       -2.2454279657
 H          1.3290836212       -2.0299135369       -0.9035594754
