  62
        -98.94522617
 C          1.6066277980        0.2366144631       -0.6038911403
 C          2.8815089153        0.7342594029       -0.9707850797
 C          3.9369479721        0.6216205950        0.0437988527
 C          3.6354272307        0.1066819252        1.2497270623
 C          4.6208876873       -0.1061409416        2.3614200196
 C          5.2440215577       -1.5073832377        2.2905565234
 C          5.7711016847       -1.8795006395        0.9046436732
 H          6.2149640437       -2.8743249364        0.9822252352
 H          4.9296314695       -1.9557073732        0.2123751018
 C          6.8072576276       -0.9002270956        0.3356463212
 H          7.6325530531       -1.4732903796       -0.0921017275
 H          7.2199468279       -0.2891110009        1.1391586048
 C          6.2765515140        0.0111116990       -0.7725762856
 H          7.1305073142        0.5013730835       -1.2474935055
 H          5.7794969252       -0.5923823743       -1.5361304309
 C          5.3086993144        1.1134243993       -0.3241222782
 H          5.7497621243        1.6777952379        0.5001084211
 H          5.1659756041        1.7940881869       -1.1685528449
 H          4.4838346883       -2.2382351527        2.5760078123
 H          6.0562961575       -1.5606654943        3.0177466296
 H          5.3987186547        0.6526669746        2.3009445057
 H          4.0947970473        0.0010908208        3.3116727154
 O          2.3929863936       -0.3278535978        1.5792360769
 C          1.3487059933       -0.2836882390        0.6649305883
 O          0.2749084323       -0.7385357489        1.1007954416
 H         -2.1090801612        0.0574116782       -0.7119102671
 C         -1.7706256462        1.0776216024       -0.7057968766
 C         -0.4951768070        1.3873179493       -1.1476796598
 C         -0.0891980363        2.7201316571       -1.1358300991
 C         -0.9417277382        3.7122646292       -0.6932748022
 C         -2.2103429260        3.3949548017       -0.2367716869
 C         -2.6222193637        2.0691883661       -0.2367954267
 N         -3.9074956415        1.7036249978        0.2046097705
 S         -4.0220940148        0.5275530469        1.4045519384
 O         -5.3567876189        0.7040818493        1.9414799809
 O         -2.9422490648        0.6428095370        2.3562869726
 C         -3.9614648235       -1.0209650134        0.5307192630
 C         -5.0065930662       -1.3185397737       -0.3221524644
 C         -4.9818771450       -2.5160658800       -1.0182108288
 C         -3.9200842743       -3.3918175022       -0.8461569549
 C         -2.8819213264       -3.0787323307        0.0178947394
 C         -2.8971566332       -1.8810256701        0.7168465800
 H         -2.0888691898       -1.5886913555        1.3699426119
 H         -2.0519128514       -3.7553589994        0.1484259352
 H         -3.8983820187       -4.3236651390       -1.3893580609
 H         -5.7859886713       -2.7626888129       -1.6925763863
 H         -5.8139606590       -0.6121208046       -0.4196564488
 H         -4.4962212301        2.4901689656        0.4427509744
 H         -2.8745777858        4.1682973940        0.1195866990
 H         -0.6161127904        4.7418062872       -0.6949360281
 H          0.9067040972        2.9646103364       -1.4789359898
 C          0.4782476553        0.3342639853       -1.6179648117
 H          0.9506845066        0.7013923000       -2.5402963227
 C         -0.1586238658       -1.0110450695       -1.8914420858
 C         -1.0261585896       -1.1885402140       -3.1006468464
 C          0.3239690846       -1.8361295817       -3.0447587569
 H          0.3790939231       -2.9073182160       -2.9229746750
 H          1.1136693685       -1.4259066980       -3.6572199788
 H         -1.9022804183       -1.8134263411       -3.0158328858
 H         -1.1526775120       -0.3364454024       -3.7510446098
 H         -0.4382924967       -1.5387215091       -0.9879733307
 O          3.1245412815        1.2490268975       -2.0953826229
