  62
        -98.94148149
 C         -2.0113606395       -1.5395546311        0.1647202127
 C         -2.5948819055       -0.6193662613        1.0751142544
 C         -3.4061243411        0.4561374434        0.4918186602
 C         -3.5838210389        0.4930721216       -0.8408680162
 C         -4.3366416993        1.5624705525       -1.5775356760
 C         -3.3988052048        2.6992158740       -2.0090464162
 C         -2.4827139654        3.1972205746       -0.8909898355
 H         -1.8041823289        2.3887090659       -0.6081816384
 H         -1.8735701786        4.0036011745       -1.3061516186
 C         -3.2209029644        3.7013367424        0.3577465493
 H         -4.2631638015        3.9071734866        0.1113810880
 H         -2.7718539425        4.6454855689        0.6735585830
 C         -3.1639208377        2.7543291301        1.5584235871
 H         -2.1276880390        2.4702102480        1.7584062910
 H         -3.5306094222        3.2954527623        2.4344359112
 C         -3.9933966719        1.4702021293        1.4321875455
 H         -4.0165026475        0.9903252673        2.4147883807
 H         -5.0174749313        1.7171965108        1.1456657271
 H         -4.0048792391        3.5259649837       -2.3838440847
 H         -2.7726852256        2.3393009158       -2.8291252091
 H         -4.7886205332        1.1179769914       -2.4658254527
 H         -5.1256422874        1.9510955393       -0.9366924045
 O         -3.0396467825       -0.4220768544       -1.6804262067
 C         -2.2154875479       -1.4411527696       -1.2119303494
 O         -1.7512913973       -2.1566274675       -2.1194747572
 H          0.3574346140       -1.5735481200       -1.2136187438
 C          0.9155238446       -1.6502994668       -0.2915676304
 C          0.2999972939       -2.1827443107        0.8331638338
 C          1.0315999476       -2.2749570511        2.0109939103
 C          2.3514825652       -1.8591902969        2.0548813072
 C          2.9649873184       -1.3389915348        0.9297550839
 C          2.2372371952       -1.2296137391       -0.2490284271
 N          2.8426853855       -0.6913672502       -1.3957705340
 S          3.8017923100        0.6677891146       -1.2288738899
 O          3.7433710508        1.3327466429       -2.5111014964
 O          5.1155762984        0.2752565896       -0.7827996345
 C          3.0194204015        1.6666837906        0.0262705819
 C          1.7391755363        2.1288609437       -0.2067026472
 C          1.1197232652        2.9019960992        0.7615701934
 C          1.7843866519        3.1933964903        1.9430126138
 C          3.0698822773        2.7236693500        2.1612731857
 C          3.6959963098        1.9533940919        1.1944819156
 H          4.6959878065        1.5716856030        1.3209514882
 H          3.5849295412        2.9541408775        3.0797966121
 H          1.2949641054        3.7919305113        2.6949676133
 H          0.1210778555        3.2723786272        0.5926822246
 H          1.2478557476        1.8878618069       -1.1366339891
 H          2.2229896691       -0.6166535712       -2.1887831004
 H          3.9953287505       -1.0230785641        0.9421575100
 H          2.9093838728       -1.9404479101        2.9749095760
 H          0.5555585183       -2.6648728562        2.8984289632
 C         -1.1403055337       -2.6252136879        0.7727997432
 H         -1.4975615758       -2.7195809210        1.8103913820
 C         -1.3152439739       -3.9842798285        0.1099487323
 C         -0.2690728019       -4.6359341388       -0.7386500119
 C         -0.5612695994       -5.1731351131        0.6283325753
 H         -1.0782433248       -6.1165046818        0.7167185335
 H          0.1743385719       -4.9966305862        1.3985601540
 H         -0.6021513989       -5.1916915903       -1.6019364129
 H          0.6632771337       -4.1162348245       -0.8945421927
 H         -2.3445269992       -4.1551637846       -0.1894178793
 O         -2.4416694083       -0.6981576213        2.3226549283
