  62
        -98.94025872
 C         -1.7930483460       -1.0810161771       -0.2309494445
 C         -3.1420622503       -1.3667419194        0.0790737172
 C         -4.1357159621       -0.3581165115       -0.3288059711
 C         -3.7164106428        0.7505643563       -0.9635896330
 C         -4.5497262042        1.9192574790       -1.4121192145
 C         -4.5721776240        3.0169925317       -0.3346256746
 C         -5.6679062963        2.8630358872        0.7193801719
 H         -5.4927361694        3.6235112573        1.4838261554
 H         -6.6371928849        3.0749100872        0.2631772687
 C         -5.7360301952        1.4919613201        1.3969294571
 H         -4.7276228279        1.1485732627        1.6348261319
 H         -6.2680061683        1.6116278796        2.3427738699
 C         -6.4607564323        0.4353462708        0.5499768766
 H         -6.9785672917        0.9302249385       -0.2714131024
 H         -7.2313985605       -0.0470983827        1.1548881870
 C         -5.5676522511       -0.6850568006       -0.0025413384
 H         -5.5054256415       -1.4951820777        0.7310547319
 H         -6.0394793106       -1.1101396992       -0.8948971851
 H         -4.7072285832        3.9841850717       -0.8229078791
 H         -3.5931619324        3.0294665568        0.1511385305
 H         -5.5550334509        1.6000650639       -1.6701758003
 H         -4.0675492505        2.3192687297       -2.3064755138
 O         -2.4046673498        0.9847947739       -1.2449620041
 C         -1.4135314353        0.0859398363       -0.8917723971
 O         -0.2625118859        0.4350684432       -1.2131228953
 O         -3.5011806741       -2.4146354312        0.6816838594
 C         -0.7190151661       -2.0820604803        0.1527016129
 C          0.3306974931       -1.4189395740        1.0086047872
 C         -0.0724889865       -0.7222402238        2.1460973105
 C          0.8522276926       -0.0970606501        2.9587782438
 C          2.2013037347       -0.1460387348        2.6509194205
 C          2.6154534694       -0.8441665735        1.5242766675
 C          1.6836421394       -1.4853074978        0.7173687018
 H          2.0372955006       -2.0147681294       -0.1507382915
 N          3.9818690111       -0.9377085480        1.1986270540
 S          4.5201375992       -0.4401784351       -0.3070283920
 O          3.8694983216       -1.2025785930       -1.3397091798
 O          5.9604351196       -0.5597595670       -0.2358424850
 C          4.0765885077        1.2853162234       -0.4008909911
 C          2.7703913532        1.6408777062       -0.6710382609
 C          2.4374392452        2.9872499068       -0.6765040446
 C          3.4030499960        3.9463788814       -0.4147027390
 C          4.7105766821        3.5704743316       -0.1445106020
 C          5.0509958383        2.2281239144       -0.1321559778
 H          6.0544511739        1.8890098296        0.0689764122
 H          5.4615960672        4.3172513336        0.0573226280
 H          3.1343720280        4.9911129207       -0.4224567960
 H          1.4168749301        3.2658924533       -0.8867200787
 H          2.0247870967        0.8886849440       -0.8758765637
 H          4.5942083520       -0.5604109702        1.9087771958
 H          2.9264015806        0.3475793330        3.2801918522
 H          0.5221787830        0.4390780720        3.8357508135
 H         -1.1272799829       -0.6780257413        2.3817366903
 H         -1.2304807025       -2.8424029147        0.7617510457
 C         -0.1599761987       -2.7510927534       -1.0852787302
 C          0.4018485102       -4.1378428582       -1.0034968943
 C         -0.9075992954       -3.8988271899       -1.6917886390
 H         -0.9484576117       -3.9767909420       -2.7679610198
 H         -1.8130082281       -4.2170780503       -1.1957342074
 H          1.2652110330       -4.3776461309       -1.6060707863
 H          0.3870213490       -4.6269594902       -0.0411611497
 H          0.3143578369       -2.0510072272       -1.7651894861
