  62
        -98.93779651
 C          1.4420727441        1.5731539426       -0.3452343390
 C          1.5360671276        0.2156620303       -0.7337772043
 C          2.6287442390       -0.5766010545       -0.1278441736
 C          3.4959530509        0.0302291967        0.7012631991
 C          4.7020287033       -0.5622279595        1.3793859320
 C          5.8834338350       -0.7717872624        0.4158881713
 C          5.5103648588       -1.3250520638       -0.9574697420
 H          6.4068679323       -1.2946609649       -1.5823370089
 H          4.7707282700       -0.6682322467       -1.4188471843
 C          4.9870635526       -2.7592627989       -0.9625456862
 H          5.7589745483       -3.4232586232       -0.5666517703
 H          4.8101670969       -3.0387017256       -2.0042655285
 C          3.6963049592       -3.0007342292       -0.1782591724
 H          3.8868831257       -3.0124308649        0.8916330584
 H          3.3371597291       -4.0012481323       -0.4378564526
 C          2.5582123887       -2.0373670192       -0.5010600039
 H          1.6412868921       -2.4100279395       -0.0238181712
 H          2.3618712190       -2.0648985020       -1.5789438815
 H          6.6055497926       -1.4353622951        0.8943475815
 H          6.3652338355        0.1967631975        0.2619055616
 H          5.0060599901        0.1451880351        2.1542608639
 H          4.4280734729       -1.4912300337        1.8715599622
 O          3.4029621984        1.3578740547        1.0030921549
 C          2.3674715480        2.1393605962        0.5334071443
 O          2.3845195911        3.3177191383        0.9472248295
 H         -0.6652174715        0.2737384805        0.4352454735
 C         -1.2247114267        1.1560640765        0.6933316671
 C         -0.8553835979        2.3863169185        0.1694697327
 C         -1.5765486997        3.5142442173        0.5450644953
 C         -2.6456719125        3.4047219000        1.4167550376
 C         -3.0098757246        2.1760388933        1.9365449114
 C         -2.2835887819        1.0427912063        1.5822333055
 N         -2.5938321735       -0.1978035451        2.1431974020
 S         -2.1692389886       -1.6803190758        1.5095840297
 O         -2.8327755953       -2.6190629674        2.3906970694
 O         -0.7369851021       -1.8064638825        1.4183731612
 C         -2.9480629139       -1.7561911018       -0.0925922938
 C         -2.2236436059       -1.5885425400       -1.2540682116
 C         -2.8935376998       -1.6523619195       -2.4678549564
 C         -4.2605509849       -1.8727461506       -2.5010754263
 C         -4.9735791721       -2.0382839853       -1.3225447627
 C         -4.3127226454       -1.9811684491       -0.1077798368
 H         -4.8239012416       -2.1269374931        0.8299184873
 H         -6.0370739464       -2.2131566731       -1.3485400811
 H         -4.7721047415       -1.9183893887       -3.4495816636
 H         -2.3330702191       -1.5252904871       -3.3800371985
 H         -1.1611784801       -1.4032029119       -1.2152180312
 H         -3.4312928848       -0.2360312166        2.7023746324
 H         -3.8349559695        2.0932871636        2.6270340682
 H         -3.1982231380        4.2873156272        1.7009928915
 H         -1.2810033607        4.4825141859        0.1686580273
 C          0.3139449911        2.4931991852       -0.7799995052
 H          0.7186702354        3.5139343065       -0.6858067921
 C         -0.0948601007        2.2983419840       -2.2342622484
 C         -1.3835994757        1.6587406492       -2.6443476052
 C         -1.1893824599        3.1311485784       -2.8338397971
 H         -1.0545056363        3.5117001463       -3.8349719779
 H         -1.7314210773        3.7945473775       -2.1779808758
 H         -2.0539137663        1.3240482369       -1.8676351018
 H         -1.3675921232        1.0151628890       -3.5097003087
 H          0.7635043231        2.0983649878       -2.8670900466
 O          0.7588419470       -0.3387420425       -1.5527023489
