  62
        -98.93867662
 C         -1.6811271700       -0.8682499388        0.1240788001
 C         -2.7626415901       -0.5516071483        0.9779664298
 C         -3.4829402595        0.7003656019        0.6899214795
 C         -3.0746817990        1.4755210617       -0.3294238504
 C         -3.6288497284        2.8046671819       -0.7786592506
 C         -5.1552911183        2.9588234424       -0.8223305110
 C         -5.9278263687        1.6817883627       -1.1839132611
 H         -6.6245557184        1.9064214329       -1.9935992613
 H         -5.2393423589        0.9178589724       -1.5491097409
 C         -6.7361483192        1.1209265931       -0.0114213313
 H         -7.2272546090        1.9494139833        0.5037954585
 H         -7.5208111293        0.4701812433       -0.4047915115
 C         -5.9379061298        0.3036799928        1.0035779889
 H         -5.6321159400       -0.6458841973        0.5559307690
 H         -6.6004348501        0.0644495231        1.8389565288
 C         -4.6756901397        0.9854643224        1.5565137592
 H         -4.4536813901        0.5407855423        2.5307453693
 H         -4.8310832993        2.0532989024        1.6913150591
 H         -5.3717359879        3.7357642325       -1.5575748711
 H         -5.5120838784        3.3294568826        0.1377059689
 H         -3.2097038383        3.5839564518       -0.1349466105
 H         -3.2174424481        2.9598631017       -1.7790106205
 O         -2.0096833989        1.1441070113       -1.1133403901
 C         -1.2964707594       -0.0324695990       -0.9235330299
 O         -0.3636385192       -0.1999682094       -1.7284484096
 O         -3.1060050406       -1.2773621282        1.9503627797
 C         -0.9230186905       -2.1614947691        0.3496827903
 C          0.5533130695       -1.9263795796        0.5594399007
 C          1.5139397393       -2.8532353900        0.1705003010
 C          2.8582731793       -2.6142613604        0.3971761913
 C          3.2786700096       -1.4423872406        0.9983135914
 C          2.3281208998       -0.5033426102        1.3776517611
 C          0.9799896398       -0.7586583297        1.1769379807
 H          0.2472321300       -0.0242296994        1.4884231705
 N          2.7458990701        0.7137041397        1.9414582111
 S          4.0439925406        1.4933002292        1.2231997214
 O          5.2707131203        1.0139988387        1.8124832518
 O          3.7804163711        2.9054170793        1.3997481313
 C          4.0086740909        1.0522672991       -0.5066613186
 C          5.1630605609        0.5881459287       -1.1052896083
 C          5.1268409811        0.2272302986       -2.4423420182
 C          3.9392127713        0.3228139190       -3.1514050086
 C          2.7887756713        0.7929487595       -2.5372944089
 C          2.8238694511        1.1694140895       -1.2048910189
 H          1.9331795711        1.5295118499       -0.7147839791
 H          1.8520587015        0.8459615198       -3.0684971591
 H          3.9062115315        0.0266656690       -4.1880011685
 H          6.0203767311       -0.1367870017       -2.9234711780
 H          6.0588523107        0.5109432684       -0.5105551680
 H          1.9925983003        1.3611067000        2.1207515409
 H          4.3216220996       -1.2368850509        1.1785631216
 H          3.5900035691       -3.3471623207        0.0945678915
 H          1.2076462591       -3.7664520399       -0.3124478691
 H         -1.3354679109       -2.5821472689        1.2798797602
 C         -1.2066254206       -3.1268896290       -0.7855436297
 C         -1.3207163512       -4.5993154889       -0.5302155697
 C         -2.5461441708       -3.7963016385       -0.8433079700
 H         -3.0199538806       -3.9239783284       -1.8051016601
 H         -3.2384496909       -3.5853935282       -0.0409555002
 H         -0.9534397012       -5.2825834691       -1.2811408995
 H         -1.1913463716       -4.9447783189        0.4844337204
 H         -0.7699085302       -2.8008637092       -1.7229644896
