  62
        -98.94103540
 C         -1.7045996917        0.2251756433       -0.9409379508
 C         -2.9167017282        0.9220109113       -0.7148252900
 C         -4.1091010004        0.0859740537       -0.5017754901
 C         -3.9968252717       -1.2537378107       -0.5217186398
 C         -5.1172145966       -2.2158668877       -0.2554007172
 C         -5.1973122199       -2.5773661460        1.2344853033
 C         -5.1730105207       -1.3662702366        2.1671036000
 H         -4.1988398493       -0.8774475261        2.0919570045
 H         -5.2658599387       -1.7409608363        3.1888128542
 C         -6.2784602933       -0.3355751638        1.8987365601
 H         -6.7166865413       -0.0354801564        2.8529758072
 H         -7.0734620831       -0.7902045962        1.3064880583
 C         -5.7995937608        0.9422377844        1.2073402474
 H         -4.9421840963        1.3517222766        1.7474034554
 H         -6.6040189213        1.6806307036        1.2627334951
 C         -5.4134472966        0.7961814703       -0.2698991398
 H         -5.2845710510        1.8021764350       -0.6797282784
 H         -6.2217879564        0.3046342733       -0.8148929107
 H         -4.3462756514       -3.2160404187        1.4818158870
 H         -6.1117463496       -3.1494236333        1.4019481705
 H         -6.0555547140       -1.7729524038       -0.5835008902
 H         -4.9339529118       -3.1245932747       -0.8311835045
 O         -2.8184724915       -1.8895455478       -0.7419007030
 C         -1.6538766808       -1.1733190885       -0.9505733758
 O         -0.6465485464       -1.8843669118       -1.1387486460
 H          2.0172457985        0.1366663718       -0.2263917646
 C          1.5412233958        0.8523745869        0.4264269744
 C          0.2858641695        1.3457889076        0.1031450841
 C         -0.3225595457        2.2506526602        0.9664509081
 C          0.3191258686        2.6479005193        2.1249566807
 C          1.5827938589        2.1737089814        2.4312509230
 C          2.2000170460        1.2710363024        1.5737698906
 N          3.4760433240        0.7652450509        1.8568090989
 S          4.5714839817        0.5031711340        0.6191143048
 O          5.8637329875        0.5346875668        1.2702537483
 O          4.3832034641        1.4375419460       -0.4655353155
 C          4.2424861224       -1.1584549436        0.0745148179
 C          4.2202412005       -2.1649310792        1.0193087498
 C          3.9861051200       -3.4658299393        0.6048868802
 C          3.7823221081       -3.7373840923       -0.7395977244
 C          3.8123786649       -2.7165106872       -1.6764876767
 C          4.0454212095       -1.4131103738       -1.2677456253
 H          4.0710903923       -0.5885712138       -1.9633180115
 H          3.6501361586       -2.9290482968       -2.7210915648
 H          3.5966588392       -4.7502213078       -1.0605326245
 H          3.9605858852       -4.2637821313        1.3294987840
 H          4.3857756093       -1.9156135810        2.0541693929
 H          3.9173987923        1.1536294228        2.6774284372
 H          2.0887009586        2.4982508190        3.3280692253
 H         -0.1636752385        3.3469188949        2.7913629862
 H         -1.3003742529        2.6351993863        0.7206922073
 C         -0.3716848185        0.9134484354       -1.1857786185
 H          0.2741913762        0.1503383013       -1.6411894054
 C         -0.4581378250        2.0912787865       -2.1391298487
 C          0.8091738206        2.6227957213       -2.7360913831
 C         -0.1720174602        1.8825262622       -3.5939434826
 H         -0.7473873166        2.4403519868       -4.3175665647
 H          0.0833893892        0.8832177898       -3.9157926117
 H          1.7351863540        2.1340664081       -2.4688485697
 H          0.9055174775        3.6895481279       -2.8699693608
 H         -1.2287092080        2.8033961972       -1.8759387139
 O         -3.0277326246        2.1767966971       -0.6855891048
