  62
        -98.93825963
 C         -2.2792170102       -1.0932600100        0.1884129804
 C         -2.4363058806        0.0741143303       -0.5937617791
 C         -3.4377225607        1.0506972599       -0.1221694284
 C         -4.1020731703        0.8150079393        1.0217087517
 C         -5.1832219503        1.6510728688        1.6485416324
 C         -6.5733022603        1.1615085087        1.2078388326
 C         -7.0875582308        1.7718266692       -0.0953226970
 H         -8.0091185408        1.2476433191       -0.3583987770
 H         -7.3439516309        2.8194043391        0.0759217535
 C         -6.1215397711        1.6924420599       -1.2801767073
 H         -5.6575113310        0.7049879100       -1.3112334579
 H         -6.7050086214        1.8044905802       -2.1960637971
 C         -5.0359666513        2.7786836201       -1.2474122472
 H         -5.3026534012        3.5275840097       -0.5019299668
 H         -5.0121850417        3.2955260705       -2.2091468770
 C         -3.6100270411        2.2726752002       -0.9835184878
 H         -3.1365619514        2.0105683507       -1.9350343981
 H         -3.0142757512        3.0866730501       -0.5558238476
 H         -7.2921465901        1.3927089182        1.9964243329
 H         -6.5301869601        0.0734271888        1.1136335121
 H         -5.0428281205        2.7023914189        1.4157259828
 H         -5.0927186099        1.5150970783        2.7283068323
 O         -3.8955018599       -0.3055569610        1.7658809212
 C         -3.0002928998       -1.2790663807        1.3725435305
 O         -2.9342388994       -2.2553130310        2.1455784101
 O         -1.7916077510        0.3122164209       -1.6513846592
 C         -1.3131950801       -2.2137686297       -0.1697264604
 C          0.0997878400       -1.8185531896        0.1882883094
 C          0.7144514604       -2.3516537400        1.3160177089
 C          1.9993599704       -1.9737419699        1.6622326587
 C          2.6971760600       -1.0592952894        0.8931121389
 C          2.0856089196       -0.5085807590       -0.2252441107
 C          0.7992050396       -0.8953564591       -0.5751201905
 H          0.3201921192       -0.4455568588       -1.4314819701
 N          2.7807313292        0.4195303614       -1.0182594605
 S          3.6317478692        1.6500220613       -0.2627096902
 O          3.0279719395        2.0282058606        0.9949057802
 O          3.7512896887        2.6948335017       -1.2563112598
 C          5.2390134694        0.9348156915        0.0193831390
 C          5.8619417492        0.2932018020       -1.0333805214
 C          7.1163772894       -0.2598302078       -0.8319087520
 C          7.7257004197       -0.1590563382        0.4099930078
 C          7.0894392299        0.4923221912        1.4553993983
 C          5.8335595497        1.0464159710        1.2609952589
 H          5.2974777199        1.5541976006        2.0470778093
 H          7.5643086702        0.5700301009        2.4202552882
 H          8.7016612798       -0.5914518981        0.5643425174
 H          7.6135568092       -0.7682202974       -1.6422603524
 H          5.3550921989        0.2359622823       -1.9821062913
 H          2.2342084389        0.7765177817       -1.7890796402
 H          3.6966824500       -0.7584034093        1.1613296488
 H          2.4642475808       -2.3961907802        2.5399986584
 H          0.1676461307       -3.0530939803        1.9298063888
 H         -1.5945053697       -3.0572528600        0.4745478893
 C         -1.4324804204       -2.6562929491       -1.6148285606
 C         -0.8837759603       -3.9930934188       -2.0096401813
 C         -2.3656945503       -3.7751433091       -1.9622368608
 H         -2.9112940206       -3.7203083288       -2.8924012206
 H         -2.9234172700       -4.2298156296       -1.1562089408
 H         -0.4088678205       -4.0905439783       -2.9736964215
 H         -0.4360590699       -4.5966417391       -1.2346565417
 H         -1.3482301408       -1.8457732688       -2.3261495402
