  62
        -98.93751280
 C          1.7115686673        1.0520887140       -0.5820917690
 C          1.8639543071        0.0518209171        0.4056793135
 C          3.2394620780       -0.1879752152        0.8812130013
 C          4.2454781889        0.5438250104        0.3718701984
 C          5.7128675020        0.4188832103        0.6762545721
 C          6.4003118699       -0.5132989623       -0.3359911924
 C          6.3712371337       -1.9965547128        0.0308009175
 H          7.0404538588       -2.1696674781        0.8762835514
 H          6.7719201684       -2.5494538677       -0.8220049000
 C          4.9900620762       -2.5590631120        0.3766570775
 H          5.0300852578       -3.6428491076        0.2513705372
 H          4.2504116643       -2.1786899656       -0.3300420632
 C          4.5512241392       -2.2411369298        1.8137887790
 H          5.4098888895       -1.8721653910        2.3745169460
 H          4.2332398214       -3.1622243893        2.3065284916
 C          3.3866511107       -1.2474235307        1.9390923994
 H          3.4393825948       -0.7571595645        2.9169622448
 H          2.4377833900       -1.7923143504        1.9149413479
 H          7.4445812365       -0.2108713543       -0.4377219726
 H          5.9214264465       -0.3642366550       -1.3071879824
 H          6.1387703906        1.4190680774        0.5726382156
 H          5.8676622517        0.0761742312        1.6949919698
 O          4.0503499214        1.5059198714       -0.5728317636
 C          2.7913353966        1.7860321418       -1.0701363430
 O          2.7618274090        2.6968971306       -1.9229961593
 H         -2.1558766442        0.3881620632       -0.4601177836
 C         -1.8123374083        1.1575816262        0.2085405606
 C         -0.5853359995        1.7638550457       -0.0021525647
 C         -0.1807351668        2.7732274506        0.8682325994
 C         -0.9803742314        3.1509076719        1.9288577047
 C         -2.1986134564        2.5306227730        2.1461963930
 C         -2.6138692250        1.5253369912        1.2814400502
 N         -3.8161311177        0.8485074025        1.5056446393
 S         -4.6671243873        0.0856630300        0.2959056609
 O         -4.7393592172        0.8917134115       -0.9009368833
 O         -5.9371945754       -0.2408723480        0.9090641924
 C         -3.7648076159       -1.4142948922       -0.0311636851
 C         -3.1840727740       -2.0977722189        1.0178900683
 C         -2.4896967549       -3.2665252205        0.7508220314
 C         -2.3923360965       -3.7325158375       -0.5511275888
 C         -2.9889996891       -3.0394863944       -1.5929485746
 C         -3.6837439005       -1.8694013688       -1.3324599902
 H         -4.1534389065       -1.2911305983       -2.1126905045
 H         -2.9109392528       -3.4033658325       -2.6052699547
 H         -1.8448892119       -4.6391750625       -0.7558516052
 H         -2.0193371975       -3.8052015020        1.5575398148
 H         -3.2679293536       -1.7051331414        2.0173894738
 H         -4.3963435316        1.1962868855        2.2528584443
 H         -2.8188143262        2.8174744351        2.9815949876
 H         -0.6532076164        3.9343712751        2.5960223579
 H          0.7749731857        3.2527934398        0.7030723959
 C          0.3315594532        1.3647730066       -1.1323846847
 H          0.4562152211        2.2332308170       -1.7957173276
 C         -0.1807114711        0.1959666370       -1.9480828414
 C         -1.1734605955        0.4219238949       -3.0469740839
 C          0.2444137532        0.0682514513       -3.3787220110
 H          0.4525117987       -0.9164303483       -3.7691042610
 H          0.8869431848        0.8406835800       -3.7762683888
 H         -1.5029129829        1.4348253133       -3.2236002201
 H         -1.9398091047       -0.3205172906       -3.2092393622
 H         -0.2606081237       -0.7158512154       -1.3666434548
 O          0.9027640083       -0.6161963902        0.8671782886
