  62
        -98.93556790
 C         -1.7029159908       -0.9904096101        0.2821978208
 C         -1.9745081709        0.3936813498        0.1368309700
 C         -3.2990105308        0.7790907294       -0.3858308505
 C         -4.1689228607       -0.1942354508       -0.7128155701
 C         -5.5784331706       -0.0588694411       -1.2251176804
 C         -6.5747716608        0.3326965195       -0.1224771308
 C         -6.0984076210        1.4461984001        0.8063045886
 H         -6.8449783211        1.5606706105        1.5967368884
 H         -5.1660766511        1.1396262304        1.2837605090
 C         -5.9065402809        2.8084346997        0.1438133379
 H         -6.8486441008        3.1205902194       -0.3123542025
 H         -5.6693427111        3.5228229802        0.9362977375
 C         -4.8025523907        2.8902812191       -0.9131077220
 H         -5.1296427306        2.4642061885       -1.8577424718
 H         -4.6115058607        3.9507459890       -1.1014511426
 C         -3.4714770308        2.2751431994       -0.4925830614
 H         -2.6952506907        2.6100921190       -1.1908901614
 H         -3.1775791510        2.6845780800        0.4805156384
 H         -6.7665726809       -0.5522114101        0.4894022897
 H         -7.5140134407        0.6255944992       -0.5948556711
 H         -5.6119950105        0.6506892384       -2.0464703208
 H         -5.8630394205       -1.0371341314       -1.6189733099
 O         -3.8613083407       -1.5135257207       -0.5709642092
 C         -2.6442816907       -1.9523837804       -0.0818566788
 O         -2.5502571707       -3.1952007603       -0.0311721880
 H          1.9676719291       -0.1108684200        0.2490321010
 C          1.8023221193       -0.9649773104       -0.3896179686
 C          0.6444627093       -1.7149869304       -0.2447257983
 C          0.4367590395       -2.7998114809       -1.0900349877
 C          1.3748432996       -3.1216711414       -2.0534471074
 C          2.5415482596       -2.3875247115       -2.1775743976
 C          2.7580405495       -1.3013903510       -1.3381106582
 N          3.9231329495       -0.5311044710       -1.4454910284
 S          4.6456382792        0.1137289898       -0.0812498587
 O          6.0182548993        0.3449198496       -0.4780106686
 O          4.4517249390       -0.7297005495        1.0746465418
 C          3.8409292291        1.6838964900        0.1484179202
 C          3.3282824589        2.0174881507        1.3857995000
 C          2.7258603288        3.2544029308        1.5512781691
 C          2.6483076190        4.1317362301        0.4812576686
 C          3.1711019992        3.7830437294       -0.7548714111
 C          3.7753190093        2.5483788593       -0.9260961803
 H          4.1949128394        2.2431823088       -1.8701957700
 H          3.1068333793        4.4688028789       -1.5843785215
 H          2.1752488989        5.0921119102        0.6123759279
 H          2.3153170986        3.5256734813        2.5107140589
 H          3.4038774788        1.3027377111        2.1905812504
 H          4.6008811596       -0.8691220714       -2.1127085581
 H          3.2796087098       -2.6516436619       -2.9198287173
 H          1.2024528298       -3.9634476418       -2.7072668669
 H         -0.4661631106       -3.3816472508       -0.9865907975
 C         -0.3407760309       -1.3570947598        0.8423414313
 H          0.0255823090       -0.4404082395        1.3246048608
 C         -0.3803989211       -2.4602092191        1.8833588319
 C          0.8180632788       -2.6607803986        2.7605636723
 C         -0.4475389113       -2.1004705983        3.3356043517
 H         -1.0348200114       -2.7231876479        3.9937632220
 H         -0.4708647314       -1.0510789881        3.5911219011
 H          1.0990752088       -3.6693102684        3.0230963629
 H          1.6598609988       -1.9980320586        2.6201346820
 H         -0.9205282410       -3.3400739593        1.5592343624
 O         -1.1412048009        1.2878565000        0.4459233896
