  62
        -98.93886363
 C         -1.8782541463       -0.8828713504       -0.1069501065
 C         -2.4639112019       -0.1359336865        0.9389917341
 C         -3.5902800512        0.7482588939        0.5820947844
 C         -3.9645583670        0.8275174367       -0.7087123517
 C         -5.0984918626        1.6206852492       -1.3016678850
 C         -6.4703503883        0.9784239528       -1.0381835114
 C         -6.6784022083        0.4657700097        0.3845311080
 H         -5.9006869395       -0.2629026097        0.6201995258
 H         -7.6353361931       -0.0620707939        0.4102838715
 C         -6.7105079712        1.5427371450        1.4663064397
 H         -6.9502117192        1.0471806591        2.4105804165
 H         -7.5167085130        2.2464669377        1.2473297403
 C         -5.4157099410        2.3342796528        1.6612995198
 H         -5.5074793970        2.8808223732        2.6046147717
 H         -5.2926243398        3.0828492252        0.8831139862
 C         -4.1569276540        1.4800912960        1.7752962637
 H         -4.3089059252        0.7204895166        2.5506625830
 H         -3.3414482928        2.1119585610        2.1485152714
 H         -6.5803468257        0.1290585921       -1.7167841869
 H         -7.2449001129        1.7073675747       -1.2824008632
 H         -5.0716580614        2.6429390960       -0.9359258859
 H         -4.9296271228        1.6496565806       -2.3804579752
 O         -3.3411700858        0.1184028532       -1.6926269108
 C         -2.2941495805       -0.7463859940       -1.4309225570
 O         -1.8311668722       -1.3160224547       -2.4364665115
 H          0.3210917045        0.5968902598        0.3804894141
 C          0.9196078649       -0.0339593210       -0.2651615316
 C          0.5237258836       -1.3499239414       -0.4766540679
 C          1.3080850677       -2.1535910725       -1.2922471631
 C          2.4375126034       -1.6381851904       -1.9062379939
 C          2.8152139178       -0.3230845394       -1.7117973588
 C          2.0497017825        0.4835589277       -0.8778801486
 N          2.4365345832        1.8152146888       -0.6542465671
 S          4.0565966591        2.1284334736       -0.3772348994
 O          4.0773097180        3.3279307737        0.4305833530
 O          4.7578697094        2.2071908981       -1.6345596474
 C          4.6543605809        0.7321649944        0.5595857586
 C          4.0481991714        0.4507920452        1.7680579258
 C          4.4799974036       -0.6466489353        2.4947200681
 C          5.5059829031       -1.4397421716        2.0035849503
 C          6.1083564221       -1.1404802117        0.7917381554
 C          5.6787567760       -0.0453047310        0.0593390523
 H          6.1160751801        0.2214165120       -0.8889852684
 H          6.9072154246       -1.7575215648        0.4133361593
 H          5.8370724502       -2.2953005989        2.5707065619
 H          4.0119219740       -0.8802296353        3.4375934803
 H          3.2552586004        1.0883260874        2.1257304890
 H          1.8457784870        2.3132785917       -0.0054199035
 H          3.6799929353        0.0966976129       -2.1994060222
 H          3.0299493203       -2.2699977395       -2.5499813679
 H          1.0293388669       -3.1804476694       -1.4598263730
 C         -0.7315352759       -1.8251967931        0.2127273876
 H         -0.5771570836       -1.7354029963        1.2982193126
 C         -1.1065086956       -3.2553955587       -0.1098946982
 C         -0.4510386489       -4.3872959378        0.6216604512
 C         -1.8831053726       -4.0451477820        0.8993208223
 H         -2.6538603881       -4.7144631568        0.5475921929
 H         -2.1227206445       -3.5583005310        1.8335325398
 H          0.2835079703       -4.1377031890        1.3720078111
 H         -0.2386627606       -5.2968351618        0.0806013995
 H         -1.3594159716       -3.3953343145       -1.1546297105
 O         -2.0651417513       -0.2004719491        2.1347483499
