  62
        -98.94049286
 C         -1.9021741334       -1.3952911558       -0.4198114129
 C         -1.7125941558       -0.2254654569        0.3560353960
 C         -2.9280362706        0.3407006943        0.9587672411
 C         -4.1067864925       -0.2906983308        0.8204048511
 C         -5.4244527159        0.1557135454        1.3930784155
 C         -6.1576259118        1.1954937185        0.5342259616
 C         -5.5450901193        2.5968765919        0.5424557344
 H         -5.4062596857        2.9251091651        1.5730722820
 H         -6.2746439951        3.2669993201        0.0832814758
 C         -4.2186827207        2.7132785356       -0.2213982187
 H         -4.2417704418        3.6008109817       -0.8575840037
 H         -4.1027559076        1.8504723783       -0.8814518918
 C         -2.9810902085        2.8254348473        0.6691413223
 H         -3.0192746292        3.7589861351        1.2347285612
 H         -2.1005428061        2.8583377077        0.0225055450
 C         -2.8072762134        1.6626099179        1.6550125977
 H         -3.5381552727        1.7392934611        2.4596138307
 H         -1.8051407676        1.7204397169        2.0876091926
 H         -7.1800238579        1.2669091332        0.9125773838
 H         -6.2096767399        0.8262997994       -0.4928229028
 H         -5.2723802930        0.5529034983        2.3972234948
 H         -6.0511648621       -0.7360475261        1.4637584211
 O         -4.2313816906       -1.4610405925        0.1383996849
 C         -3.1450795890       -2.0267529056       -0.5110582193
 O         -3.4061974260       -3.0859788847       -1.1159723039
 O         -0.6006459502        0.3277205768        0.5432969629
 C         -0.7483590192       -2.0580494401       -1.1518794539
 C          0.4644155735       -2.1320116789       -0.2555881740
 C          0.3260476600       -2.7024318677        1.0076963577
 C          1.3964133460       -2.7722849181        1.8775823587
 C          2.6401882877       -2.2948797795        1.5007636685
 C          2.7941121020       -1.7418517428        0.2383040197
 C          1.7133676236       -1.6632333411       -0.6323020193
 H          1.8529693179       -1.2085363994       -1.6006957154
 N          4.0676588637       -1.2731222171       -0.1531782094
 S          4.6693317129        0.0944705272        0.6047182486
 O          6.0233199072        0.2450015495        0.1200072276
 O          4.5113157005       -0.0526977347        2.0283815432
 C          3.6732870950        1.4429642909       -0.0057810818
 C          2.3690603934        1.5615358627        0.4292228995
 C          1.5825022449        2.5771921026       -0.0901936762
 C          2.1076539417        3.4515005826       -1.0283901557
 C          3.4213024335        3.3193000471       -1.4540988874
 C          4.2119999976        2.3030435280       -0.9435395625
 H          5.2369774828        2.1608126813       -1.2463689800
 H          3.8279511968        4.0010957897       -2.1838510475
 H          1.4889566388        4.2383312887       -1.4310160153
 H          0.5578096018        2.6534969915        0.2359870639
 H          1.9674801066        0.8655026860        1.1473648761
 H          4.1587684089       -1.1545369324       -1.1530174516
 H          3.4829594109       -2.3259481113        2.1715981236
 H          1.2646076689       -3.2051452675        2.8581140245
 H         -0.6444957443       -3.0764336755        1.3065410667
 H         -1.0870227975       -3.0901367064       -1.3412139974
 C         -0.4530393665       -1.4383151591       -2.5116534854
 C         -1.4829138089       -0.6289306359       -3.2405583776
 C         -0.2648247634        0.0392901935       -2.6816023689
 H          0.4898794119        0.3873549486       -3.3721466332
 H         -0.3698055493        0.6554455018       -1.8030517784
 H         -1.5625426217       -0.7491305675       -4.3107067495
 H         -2.4313792634       -0.4631868192       -2.7504224735
 H          0.1660258974       -2.0840568114       -3.1272436643
