  62
        -98.93089347
 C         -2.5234222448       -1.0889954987        0.5119545244
 C         -2.7886759325        0.1446751222        1.1614605119
 C         -4.0538844719        0.8114070159        0.8245973139
 C         -4.8800423173        0.2293538220       -0.0632425867
 C         -6.1691274835        0.8104191065       -0.5707772823
 C         -5.8785932981        1.9021215058       -1.6203276255
 C         -6.2917075771        3.3113681526       -1.1949117429
 H         -5.8467002360        4.0108628397       -1.9057890194
 H         -7.3767288222        3.4031682941       -1.2778982039
 C         -5.8945116751        3.7235596740        0.2257970394
 H         -6.5946725090        3.2916243911        0.9423813297
 H         -6.0153698665        4.8071992889        0.2873811532
 C         -4.4666904553        3.3620184947        0.6552945571
 H         -3.8193266450        3.2500986033       -0.2148725328
 H         -4.0686061882        4.1919973662        1.2425893816
 C         -4.3616301496        2.1013084842        1.5337140413
 H         -3.5367914779        2.2352913687        2.2396796848
 H         -5.2787908412        1.9862039853        2.1180657819
 H         -6.3964502196        1.6602903069       -2.5497287830
 H         -4.8097080985        1.8860679125       -1.8441578908
 H         -6.7380000518       -0.0047389954       -1.0184143269
 H         -6.7402413114        1.2194098930        0.2597408072
 O         -4.5911645097       -0.9485371017       -0.6704519799
 C         -3.4139754562       -1.6370127978       -0.4113495816
 O         -3.3095645722       -2.6962468215       -1.0591755538
 H          0.9832443528       -0.2577299901        1.1390578939
 C          0.9245132732       -0.6953364666        0.1513663873
 C         -0.1575472054       -1.5030129994       -0.1682654026
 C         -0.2306937085       -2.0460661017       -1.4466047980
 C          0.7574599722       -1.7783136645       -2.3765059433
 C          1.8336591115       -0.9696052155       -2.0558997831
 C          1.9162520760       -0.4215194797       -0.7830897497
 N          2.9951156142        0.4184638598       -0.4539143301
 S          4.5307483563       -0.0456591500       -0.9854074704
 O          4.6842700050        0.3735931807       -2.3560945940
 O          4.7396247349       -1.4528370807       -0.7284943739
 C          5.5749446499        0.9417811187        0.0676674708
 C          5.7904749689        2.2663065877       -0.2629984033
 C          6.5881627935        3.0408708814        0.5640594332
 C          7.1533253123        2.4818746247        1.7008297258
 C          6.9287467306        1.1508618132        2.0186944425
 C          6.1307689815        0.3706755305        1.1966986898
 H          5.9369633737       -0.6705221512        1.3993150822
 H          7.3720986470        0.7184666681        2.9012307369
 H          7.7755226776        3.0865169451        2.3416011871
 H          6.7677497140        4.0753442115        0.3194602196
 H          5.3396737601        2.6548720387       -1.1612092169
 H          3.0034248013        0.6643819864        0.5265596332
 H          2.6116623292       -0.7610756393       -2.7726941878
 H          0.6899917710       -2.2052599696       -3.3661987441
 H         -1.0757053550       -2.6634355897       -1.7091818743
 C         -1.2181246283       -1.7790895735        0.8716967549
 H         -0.8962268146       -1.3021615507        1.8073873878
 C         -1.3667893041       -3.2663167967        1.1235558699
 C         -0.3132076308       -3.9723861607        1.9212450769
 C         -1.6734951677       -3.7472378135        2.5086558064
 H         -2.3339808676       -4.5932764439        2.6244782259
 H         -1.7773857162       -3.0032564013        3.2850763745
 H          0.5074393230       -3.3811758552        2.2989833271
 H         -0.0350479286       -4.9744192195        1.6331467528
 H         -1.8201272115       -3.8028407274        0.3009955424
 O         -1.9998571154        0.6608951311        1.9990193704
