  62
        -98.94533642
 C          2.4647651405        1.1242858889       -0.0541777587
 C          3.0697219136        0.2214452700        0.8520566261
 C          3.5557836596       -1.0402477964        0.2802980794
 C          3.3899141599       -1.2721609719       -1.0348528686
 C          3.7734371541       -2.5423921733       -1.7359824249
 C          2.6019706144       -3.5343279270       -1.7603246381
 C          1.9411453386       -3.7460232006       -0.3978210624
 H          1.1519448200       -4.4898443934       -0.5305488477
 H          1.4457900197       -2.8197327460       -0.0936738646
 C          2.8999552616       -4.2060180384        0.7097169476
 H          3.8108859138       -4.6087635598        0.2655113672
 H          2.4240859664       -5.0153562747        1.2674366177
 C          3.2673667135       -3.1220523877        1.7247776977
 H          3.7592488590       -3.6041301425        2.5738352997
 H          2.3542883555       -2.6517267492        2.1001622419
 C          4.2059133180       -2.0202504801        1.2161464645
 H          5.0851821675       -2.4715534563        0.7528089096
 H          4.5329048166       -1.4372690428        2.0821612726
 H          2.9655125148       -4.4901560378       -2.1421059967
 H          1.8413901982       -3.1579670107       -2.4486487269
 H          4.6298003912       -2.9867076958       -1.2325683726
 H          4.0511389347       -2.2983846369       -2.7626512084
 O          2.8004257302       -0.3844420271       -1.8742516736
 C          2.2966616900        0.8205280385       -1.4058561964
 O          1.7463005968        1.5176032851       -2.2778879813
 O          3.1884677290        0.4558724091        2.0864818838
 C          1.8828496077        2.4206114913        0.4866398764
 C          0.3805744172        2.3332350607        0.3750662390
 C         -0.4023436902        3.2163227261       -0.3547065193
 C         -1.7684202964        3.0144459387       -0.4625940875
 C         -2.3799136068        1.9362702873        0.1506745250
 C         -1.6057067301        1.0531135327        0.8923316779
 C         -0.2427445869        1.2619866589        1.0053938779
 H          0.3602988639        0.5665125275        1.5774990201
 N         -2.2206123025       -0.0646394985        1.5058207297
 S         -2.7211575452       -1.2502493208        0.4147573411
 O         -2.8001592084       -2.4725271088        1.1857774262
 O         -1.8706034267       -1.2834179025       -0.7542625942
 C         -4.3630228610       -0.7280207396       -0.0279711354
 C         -5.3230824296       -0.6943252049        0.9648054698
 C         -6.6049521710       -0.2799962921        0.6407156695
 C         -6.9028872662        0.0892907535       -0.6628607366
 C         -5.9278890365        0.0476502404       -1.6479337297
 C         -4.6427412254       -0.3643975260       -1.3302183660
 H         -3.8492500687       -0.4061542350       -2.0594074894
 H         -6.1608211850        0.3357043631       -2.6604680087
 H         -7.9011633583        0.4120033362       -0.9130522182
 H         -7.3658466644       -0.2452916864        1.4035870377
 H         -5.0476776112       -0.9945867646        1.9619526354
 H         -1.6237819048       -0.4997992759        2.1969084675
 H         -3.4416716372        1.7729283880        0.0621592833
 H         -2.3641793449        3.7048456800       -1.0397915507
 H          0.0589706735        4.0524910060       -0.8534736764
 H          2.1462901930        2.4346178025        1.5544185565
 C          2.4875814077        3.6339776145       -0.1827993538
 C          2.4470878239        4.9622048038        0.5105051972
 C          3.7441779903        4.2235245021        0.3814782758
 H          4.4886474152        4.5999776927       -0.3037143726
 H          4.1596366252        3.7584374041        1.2636213015
 H          2.3025465784        5.8505039592       -0.0851731046
 H          1.9815610808        5.0024692119        1.4835633256
 H          2.3862023111        3.6135166551       -1.2613475759
