  62
        -98.93485978
 C         -2.3074685227       -1.1404568396       -0.0724224601
 C         -2.0237342774        0.1313414046       -0.6215684143
 C         -2.7164337484        1.2836172110       -0.0135826804
 C         -3.5469669107        1.0920088222        1.0271942542
 C         -4.3338117569        2.0727038227        1.8714462767
 C         -4.5630474372        3.5062391840        1.3988694716
 C         -5.4446134610        3.6391565457        0.1577961058
 H         -6.4646318534        3.3503047198        0.4231295314
 H         -5.4623765183        4.6910345735       -0.1355789445
 C         -5.0236715782        2.7954041497       -1.0427932806
 H         -5.1108634129        1.7355644308       -0.7949833878
 H         -5.7284698233        2.9948263994       -1.8545273760
 C         -3.6167895211        3.0671302694       -1.5718775264
 H         -3.5014338787        4.1326638410       -1.7791457073
 H         -3.5123426292        2.5283660133       -2.5173247941
 C         -2.4647124794        2.6178698453       -0.6555207104
 H         -1.5692472105        2.4983734625       -1.2721127241
 H         -2.2404512509        3.3674355372        0.0998077884
 H         -5.0668841712        4.0252827476        2.2188688600
 H         -3.6126236461        4.0092236659        1.2463327114
 H         -5.3027263960        1.5963948451        2.0517295564
 H         -3.8220474502        2.1058123591        2.8399477244
 O         -3.7699579813       -0.1520548177        1.5430135978
 C         -3.1736083069       -1.2800519550        1.0154995873
 O         -3.4944955423       -2.3403112249        1.5888794942
 H          0.5035296949       -0.9446630889       -1.1517072375
 C          0.7249222533       -1.7105310160       -0.4230994108
 C         -0.2843511436       -2.5729326913       -0.0194834310
 C          0.0078121897       -3.5306547773        0.9444061699
 C          1.2772629357       -3.6174949479        1.4894163936
 C          2.2788847900       -2.7506937074        1.0895090095
 C          1.9931400163       -1.7863946356        0.1322161744
 N          3.0002604693       -0.8779642107       -0.2757096531
 S          3.5533700809        0.1411458743        0.9575094991
 O          4.3194627502       -0.6479195004        1.8886567235
 O          2.4505982572        0.8916433286        1.5214355978
 C          4.6348737480        1.2210117704        0.0416530012
 C          4.1304919187        2.4014788249       -0.4694861729
 C          4.9664003561        3.2221589133       -1.2103434489
 C          6.2837909765        2.8481226284       -1.4289144609
 C          6.7749694454        1.6594799739       -0.9098459189
 C          5.9447066346        0.8347897060       -0.1676109403
 H          6.2829484542       -0.0936171886        0.2614846054
 H          7.8001661734        1.3735207504       -1.0808742010
 H          6.9315448063        3.4890113510       -2.0059466185
 H          4.5868126245        4.1473197196       -1.6134063571
 H          3.1018635956        2.6567935489       -0.2681000675
 H          2.6540287713       -0.2918439012       -1.0265971414
 H          3.2639789158       -2.7913316195        1.5246042675
 H          1.4881353052       -4.3648850460        2.2395734790
 H         -0.7757163361       -4.1937382054        1.2825284459
 C         -1.6816287112       -2.4340346766       -0.5755888772
 H         -2.2919324502       -3.2412760793       -0.1491822357
 C         -1.7041938603       -2.5627879364       -2.0857971239
 C         -1.5575725776       -3.9219036492       -2.6983656420
 C         -2.8786726290       -3.2159847422       -2.7470843814
 H         -3.2213263552       -2.8226447747       -3.6923486253
 H         -3.6741357122       -3.5763851134       -2.1108057143
 H         -0.9907680947       -4.0163025945       -3.6117141496
 H         -1.4570827874       -4.7629191238       -2.0289893478
 H         -1.2501215247       -1.7260838553       -2.5990575897
 O         -1.2268171953        0.3315036001       -1.5781462550
