  62
        -98.93790113
 C         -2.6053594606       -0.2006306787       -0.0452785698
 C         -2.3753918510       -1.2864482589       -0.9183660997
 C         -1.7346382114       -2.4796322991       -0.3404236694
 C         -1.3808154615       -2.4717749790        0.9585947906
 C         -0.7051709720       -3.5208893692        1.8169048908
 C         -0.0848495324       -4.7650062095        1.1873794010
 C          1.1740548578       -4.4993714901        0.3618041010
 H          1.9797611178       -4.2196954503        1.0454496210
 H          1.4615475075       -5.4301521302       -0.1326451688
 C          1.0619431082       -3.3935097002       -0.6853207892
 H          2.0336107283       -3.3098070106       -1.1819622491
 H          0.8688667386       -2.4363631400       -0.1938357293
 C          0.0144178782       -3.6272556199       -1.7721278692
 H          0.1342070886       -2.8385919601       -2.5204848893
 H          0.2020529779       -4.5848533001       -2.2626078990
 C         -1.4486849118       -3.5983834293       -1.3018021793
 H         -2.0794389317       -3.4163633892       -2.1772560793
 H         -1.7459976622       -4.5542434492       -0.8778689092
 H          0.1975253073       -5.4235710395        2.0133680711
 H         -0.8262306625       -5.2981995293        0.5994970610
 H         -1.4582914421       -3.8368289088        2.5474282908
 H          0.0642617282       -2.9819525094        2.3800546807
 O         -1.6535851812       -1.4100658788        1.7722064604
 C         -2.2177793007       -0.2430348687        1.2935970202
 O         -2.3380765804        0.6586679215        2.1459106601
 O         -2.6792098509       -1.2568483990       -2.1435744297
 C         -3.1198390701        1.1115604814       -0.6151452300
 C         -2.0108444097        2.1242748310       -0.4595797001
 C         -2.1625821293        3.3772648511        0.1178528997
 C         -1.0598695790        4.1861916008        0.3413597397
 C          0.2143177908        3.7607006002        0.0107634498
 C          0.3681004204        2.5246256301       -0.5985819100
 C         -0.7362773198        1.7327068905       -0.8510059500
 H         -0.5984746802        0.7604452604       -1.3091359498
 N          1.6796260903        2.0293107596       -0.8694438199
 S          2.1859252598        1.1156397396        0.4718289603
 O          1.4234399294       -0.1113197601        0.5628389104
 O          2.1628759001        1.9802066297        1.6240073102
 C          3.8735029397        0.7519087589        0.0238020204
 C          4.7943709201        1.7813277186        0.0609379503
 C          6.1018395100        1.5234484780       -0.3178798695
 C          6.4642593896        0.2480014278       -0.7258152193
 C          5.5288019492       -0.7747867718       -0.7569684192
 C          4.2183231593       -0.5225159813       -0.3811285194
 H          3.4569963390       -1.2865516910       -0.3845258693
 H          5.8126358989       -1.7660739720       -1.0720172691
 H          7.4827930795        0.0491710474       -1.0197028392
 H          6.8324734403        2.3157137577       -0.2942376496
 H          4.4665660705        2.7523720587        0.3921850702
 H          1.6592237301        1.3905853295       -1.6566786498
 H          1.0847947411        4.3556415200        0.2324634798
 H         -1.1941017187        5.1506481709        0.8072114395
 H         -3.1420351392        3.7106690815        0.4205693196
 H         -3.2836100001        0.9259509213       -1.6869621900
 C         -4.4267712000        1.5290482920        0.0197454198
 C         -5.3789007896        2.4094317622       -0.7321518404
 C         -5.7071295602        0.9637467324       -0.5154596202
 H         -6.4886162303        0.7092969327        0.1844338898
 H         -5.6379858104        0.2897426222       -1.3567056201
 H         -5.9402261894        3.1491978525       -0.1819694605
 H         -5.0927200094        2.7200934820       -1.7255191704
 H         -4.3445657700        1.6564323421        1.0931185498
