  62
        -98.94020497
 C         -2.4749263549       -1.0887783553        0.0896202620
 C         -2.7359931224       -0.0425300385       -0.8274908677
 C         -4.1488015839        0.3363955428       -0.9769455363
 C         -5.0876258826       -0.3264297986       -0.2768592465
 C         -6.5541249523       -0.0075223417       -0.2919452905
 C         -6.9151804954        0.9933267066        0.8147819021
 C         -6.0041571935        2.2201519449        0.8588844875
 H         -6.3712071424        2.8692103570        1.6569046564
 H         -4.9957713710        1.9062287418        1.1384079375
 C         -5.9405042623        3.0109415746       -0.4552454654
 H         -6.0226415416        4.0757247771       -0.2273608121
 H         -6.7897352516        2.7483583760       -1.0870243418
 C         -4.6442354648        2.8239071214       -1.2460613957
 H         -3.7858780571        2.9942098872       -0.5910828561
 H         -4.6123064686        3.5839869558       -2.0312122289
 C         -4.4669203323        1.4592345384       -1.9237924913
 H         -5.3524429930        1.2245873328       -2.5179113352
 H         -3.6086760395        1.5323453863       -2.5981989863
 H         -6.8484884956        0.4825494758        1.7781737895
 H         -7.9492768054        1.3107373268        0.6692222411
 H         -7.1085821996       -0.9329760824       -0.1278833482
 H         -6.8223974314        0.3980792574       -1.2653655327
 O         -4.7984099137       -1.3436465432        0.5752403688
 C         -3.4892450487       -1.7407805674        0.7899051033
 O         -3.3599798674       -2.6672261139        1.6161536753
 O         -1.8386058855        0.5465117051       -1.4850901633
 C         -1.0478447359       -1.5444641774        0.3268356844
 C         -0.1825531074       -0.3895118141        0.7704238812
 C         -0.6616217643        0.4879969617        1.7402244488
 C          0.1129924484        1.5411218203        2.1856244309
 C          1.3920872996        1.7302355165        1.6921112969
 C          1.8824488670        0.8573972683        0.7291971567
 C          1.0948845458       -0.1907481221        0.2721694996
 H          1.5032781572       -0.8499278360       -0.4752567065
 N          3.1708818641        1.0252285569        0.1963532217
 S          4.0662774676       -0.3600217123       -0.1681459232
 O          3.7163311356       -0.8116926732       -1.4910676735
 O          3.9315434469       -1.3289162279        0.8961331260
 C          5.7175129763        0.3149027089       -0.1805837208
 C          6.1767588497        0.9361976644       -1.3266495370
 C          7.4493950581        1.4848749602       -1.3266739723
 C          8.2366812197        1.4051303910       -0.1874689507
 C          7.7627458736        0.7774651399        0.9547624197
 C          6.4907175242        0.2271234414        0.9618411670
 H          6.0844677326       -0.2790678937        1.8228237671
 H          8.3782063528        0.7141937947        1.8376824634
 H          9.2272157710        1.8319131832       -0.1909266826
 H          7.8225668831        1.9706864822       -2.2137888587
 H          5.5329927467        0.9659701848       -2.1903296813
 H          3.7212994202        1.7031379904        0.7055766766
 H          2.0004696972        2.5492230072        2.0447582714
 H         -0.2776081204        2.2159262679        2.9327414254
 H         -1.6557818103        0.3323677651        2.1382328339
 H         -1.0907339997       -2.2693935802        1.1542418664
 C         -0.5168902203       -2.2491435339       -0.9046071271
 C          0.5243202253       -3.3186667052       -0.7751976649
 C         -0.8825693460       -3.6823218027       -1.1412416631
 H         -1.0869640922       -4.0028548060       -2.1516988429
 H         -1.4970726461       -4.1652848162       -0.3951883516
 H          1.2924716730       -3.3827493581       -1.5319767662
 H          0.8733325883       -3.5596831639        0.2181121430
 H         -0.4685566307       -1.5950128145       -1.7684377189
