  62
        -98.94184311
 C          0.7814756071        1.3372067905        0.6023985664
 C          1.2017887750        0.6018868892       -0.5293812640
 C          2.1716093764       -0.4804215056       -0.2775561113
 C          2.4804126496       -0.8031375850        0.9897663163
 C          3.3969099783       -1.8917293196        1.4932059979
 C          4.7152064851       -2.1107737973        0.7411693064
 C          5.3713901738       -0.8270393893        0.2123785207
 H          4.8705497758        0.0472723142        0.6321159864
 H          6.4108904657       -0.7964795094        0.5442630350
 C          5.3615580935       -0.7348448986       -1.3151176650
 H          5.6330901169       -1.7089702270       -1.7272917515
 H          6.1287939979       -0.0223869750       -1.6275052763
 C          4.0403977035       -0.2790369343       -1.9329745078
 H          3.8617643911        0.7715722141       -1.6884379346
 H          4.1384698637       -0.3431451762       -3.0190928611
 C          2.7994003569       -1.0798238885       -1.5029092657
 H          2.0484603907       -0.9896150284       -2.2916449562
 H          3.0423172599       -2.1297395816       -1.3676857033
 H          4.5559784003       -2.7987239005       -0.0874746890
 H          5.3938537301       -2.6081929781        1.4364195801
 H          3.6107350321       -1.6245978273        2.5313195840
 H          2.8362361991       -2.8310182326        1.5180735932
 O          1.9339230227       -0.1537555208        2.0601985904
 C          1.1278293956        0.9589182127        1.8972297653
 O          0.7862396957        1.5112278882        2.9640761603
 H         -1.7011511702        0.5761743827        1.1022497976
 C         -2.1032989814        1.1370734694        0.2703712895
 C         -1.3920062590        2.2193146020       -0.2332038535
 C         -1.9365070534        2.9418454957       -1.2871189396
 C         -3.1585863386        2.5793065022       -1.8261088612
 C         -3.8608229564        1.4980011936       -1.3276037037
 C         -3.3281630923        0.7746597527       -0.2656926971
 N         -4.0276827079       -0.3115415428        0.2803030936
 S         -3.2214548327       -1.6096540665        0.9358943724
 O         -4.2137168623       -2.6654838815        0.9555183965
 O         -2.6571533587       -1.2673765597        2.2180872040
 C         -1.9309287378       -2.0664180836       -0.2075653732
 C         -0.7513092630       -2.5647533531        0.3051849499
 C          0.2126230892       -3.0412426940       -0.5675001524
 C         -0.0111675772       -2.9976571809       -1.9340420413
 C         -1.1927160014       -2.4762964196       -2.4351597819
 C         -2.1681923619       -2.0154776450       -1.5664973673
 H         -3.1000729961       -1.6198578764       -1.9356908374
 H         -1.3595087828       -2.4312490116       -3.4992194545
 H          0.7404190923       -3.3712245403       -2.6111172727
 H          1.1321034139       -3.4457648623       -0.1769396062
 H         -0.6102913089       -2.5655216305        1.3752806292
 H         -4.8639755006       -0.5865451529       -0.2129249058
 H         -4.8148387836        1.2170396241       -1.7466160251
 H         -3.5689382348        3.1461250626       -2.6477043558
 H         -1.4041916111        3.7881862001       -1.6881316159
 C         -0.0821083176        2.5720078933        0.4266354356
 H         -0.3074400595        2.9291959848        1.4429485077
 C          0.6984712662        3.6441199336       -0.3065551261
 C          0.4217869130        5.0934488063       -0.0469174844
 C          1.6859327508        4.4690982198        0.4607028948
 H          2.6198329206        4.7314214474       -0.0135132004
 H          1.7745041010        4.2763252767        1.5205079557
 H         -0.3463903946        5.3350209027        0.6721550904
 H          0.4914915456        5.7885574872       -0.8699617049
 H          0.9722670458        3.3450336675       -1.3117415495
 O          0.8028242266        0.8423481857       -1.6971994212
