  62
        -98.93723712
 C         -1.9538299996       -1.1085494407        0.1364994189
 C         -2.5954856297       -0.2421889516        1.0552886897
 C         -3.9994731097        0.1193679085        0.7843764001
 C         -4.5911112197       -0.3792370707       -0.3170288103
 C         -5.9892267598       -0.1380152205       -0.8217451200
 C         -6.1553655300        1.2425009001       -1.4751580089
 C         -5.5321858201        2.3980202195       -0.6969809979
 H         -4.4635317601        2.2124059995       -0.5738004282
 H         -5.6352818003        3.3011064600       -1.3044836772
 C         -6.1607250901        2.6777252683        0.6662465323
 H         -5.6963793402        3.5875504080        1.0554302331
 H         -7.2260421401        2.8799746882        0.5349619126
 C         -5.9988370399        1.5774346474        1.7180576414
 H         -6.7047857798        0.7676323075        1.5541818208
 H         -6.2507901299        2.0161704766        2.6879990718
 C         -4.5839648098        1.0217486875        1.8444020709
 H         -4.5134622496        0.4565701467        2.7816431204
 H         -3.8798515199        1.8541113075        1.9583052515
 H         -7.2209053301        1.4297348100       -1.6189065086
 H         -5.6823523801        1.2103873109       -2.4597799789
 H         -6.1853753698       -0.9043349799       -1.5750086106
 H         -6.7064126297       -0.2733561512       -0.0176313801
 O         -3.9295118297       -1.1935775799       -1.1853616710
 C         -2.6125592796       -1.5743536799       -1.0011360914
 O         -2.1756765896       -2.3149599691       -1.9025798321
 O         -2.0171028797        0.2170721076        2.0783412300
 C         -0.5099713495       -1.4780591608        0.4310342285
 C          0.4230479603       -0.6233149000       -0.3921756608
 C          0.6492642602       -0.8687133188       -1.7420824011
 C          1.5180829601       -0.0686468081       -2.4624494905
 C          2.1840887000        0.9812371914       -1.8543896496
 C          1.9617055900        1.2354682303       -0.5079853394
 C          1.0863079402        0.4351793296        0.2127724300
 H          0.9046626102        0.6441099387        1.2587532502
 N          2.6686299899        2.2804513899        0.1228128214
 S          4.3407423000        2.1438379501        0.0561368412
 O          4.8369216899        2.8872829093        1.1922587418
 O          4.8035604998        2.5781200113       -1.2372360385
 C          4.6360650302        0.3963562600        0.2595832397
 C          4.4373872504       -0.1539711211        1.5104683993
 C          4.5673636305       -1.5239024012        1.6686450181
 C          4.8822278406       -2.3174147402        0.5759307575
 C          5.0824518204       -1.7491979492       -0.6721525321
 C          4.9566666002       -0.3789498390       -0.8359134609
 H          5.1036484201        0.1018392218       -1.7888260605
 H          5.3286013504       -2.3689149784       -1.5190911426
 H          4.9719082507       -3.3850394203        0.6998828666
 H          4.4166513707       -1.9688252320        2.6394457678
 H          4.1971027103        0.4949842382        2.3376755198
 H          2.3719360000        2.4418554990        1.0749774516
 H          2.8735751499        1.6065950520       -2.3984412091
 H          1.6812613900       -0.2665132472       -3.5109039206
 H          0.1205704903       -1.6752560285       -2.2247991717
 H         -0.3596686695       -1.2088677917        1.4852404087
 C         -0.2070435094       -2.9537886006        0.2646498673
 C          1.0849106007       -3.4831018909        0.8100099767
 C         -0.2113995592       -3.8437291816        1.4694764365
 H         -0.5836657890       -4.8515429516        1.3625235257
 H         -0.4424716292       -3.3938053924        2.4241245769
 H          1.6053334508       -4.2435904804        0.2492797261
 H          1.7363631107       -2.7831723312        1.3117143173
 H         -0.5736065294       -3.3716489699       -0.6631554031
