  62
        -98.93930312
 C         -0.7194812998       -1.3087677794        0.3054450305
 C         -1.5089535801       -0.5812196593        1.2273206703
 C         -2.4899390504        0.3719291202        0.6729492599
 C         -2.5543879404        0.5266500297       -0.6624896801
 C         -3.5361030306        1.3383444092       -1.4661038404
 C         -4.9299363204        0.6927217587       -1.5244412202
 C         -5.4599201903        0.1779551790       -0.1891575601
 H         -6.4095627101       -0.3280688213       -0.3819352900
 H         -4.7708660000       -0.5699205107        0.2073031002
 C         -5.7079869406        1.2502183593        0.8692147796
 H         -6.4084094608        1.9896267389        0.4747846793
 H         -6.1880164805        0.7603317794        1.7202578297
 C         -4.4645186709        1.9797565698        1.3837712194
 H         -4.1393998111        2.7450010097        0.6840016791
 H         -4.7485876711        2.5011320600        2.3025491892
 C         -3.2980135206        1.0649372103        1.7432523497
 H         -2.5703390108        1.6382732407        2.3315127195
 H         -3.6529738004        0.2786889104        2.4194678699
 H         -4.8823749501       -0.1552382115       -2.2120093400
 H         -5.6288504006        1.4222323884       -1.9372312705
 H         -3.6000380609        2.3513415893       -1.0806975507
 H         -3.1403092406        1.3888076890       -2.4822091904
 O         -1.7008208201       -0.1184373803       -1.5050461999
 C         -0.7540064999       -1.0247890598       -1.0602936096
 O         -0.0340754997       -1.4857971999       -1.9636919894
 H          1.8197616298       -0.2732482083        1.2071000103
 C          2.2789242201       -0.9989250784        0.5508295505
 C          1.6033445604       -2.1780941987        0.2608670009
 C          2.2150284308       -3.1121164888       -0.5643978488
 C          3.4682585707       -2.8596531185       -1.0935168289
 C          4.1309890903       -1.6781941983       -0.8177675892
 C          3.5285276300       -0.7393551282        0.0130692105
 N          4.1820425796        0.4607092021        0.3218715401
 S          3.3554358892        1.8049936420        0.8372932396
 O          4.2830029189        2.8949983723        0.6154485093
 O          2.9186261692        1.6317163923        2.2008692697
 C          1.9453927392        2.0274836813       -0.2334362005
 C          0.7730401190        2.4982772611        0.3217062393
 C         -0.2963510311        2.7886320505       -0.5088908608
 C         -0.1784787510        2.5938117501       -1.8759021407
 C          0.9976407892        2.1003669603       -2.4168212305
 C          2.0749270093        1.8214187009       -1.5918259104
 H          3.0019028494        1.4461788010       -1.9936789003
 H          1.0787548293        1.9318333999       -3.4784851605
 H         -1.0095734610        2.8240383796       -2.5230767808
 H         -1.2137068012        3.1638757603       -0.0844286909
 H          0.7189037189        2.6240277414        1.3919588793
 H          4.9973408996        0.6792317222       -0.2298243900
 H          5.1046268903       -1.4794543081       -1.2384462793
 H          3.9318057909       -3.5896788386       -1.7394591886
 H          1.7001871010       -4.0249976890       -0.8138138585
 C          0.2314878205       -2.3553846689        0.8566083809
 H          0.3002019704       -2.1234085485        1.9329442908
 C         -0.2915364991       -3.7806238091        0.7508091513
 C         -1.7614324190       -4.0665651695        0.8129888514
 C         -1.0085419089       -4.2891441697       -0.4625698385
 H         -0.8248315286       -5.3064696398       -0.7759248682
 H         -1.1616792091       -3.6016414200       -1.2794278087
 H         -2.0948283787       -4.9265131995        1.3742553317
 H         -2.4318327193       -3.2212138797        0.8705355511
 H          0.3557486211       -4.4851992287        1.2643327616
 O         -1.4188962101       -0.7324914089        2.4766697003
