  62
        -98.94312460
 C         -1.8987407596       -1.1275800247        0.3431314769
 C         -2.4605157271       -0.1076298252        1.1549063228
 C         -3.8734589233        0.2067212426        0.9197712494
 C         -4.5627245535       -0.4819216298       -0.0077077111
 C         -6.0181745081       -0.3046047038       -0.3455397088
 C         -6.2958034374        0.8302354294       -1.3406399390
 C         -6.1373975743        2.2424828347       -0.7760832314
 H         -6.5707602875        2.9300442081       -1.5050941222
 H         -6.7186091570        2.3331964183        0.1420703444
 C         -4.6836516543        2.6582815439       -0.5101939579
 H         -4.0076541337        1.9887247083       -1.0473738163
 H         -4.5141872766        3.6637131364       -0.9022532290
 C         -4.2886613067        2.6769992839        0.9666932042
 H         -4.8650488222        3.4427097049        1.4909424567
 H         -3.2312423170        2.9467039216        1.0350930107
 C         -4.4837676504        1.3381255828        1.6903230924
 H         -3.9769923329        1.3940976498        2.6570033939
 H         -5.5443704242        1.1541033773        1.8613959097
 H         -5.6377136563        0.7072315619       -2.2038334603
 H         -7.3250878741        0.7143777199       -1.6877207071
 H         -6.3490737102       -1.2439503155       -0.7936370213
 H         -6.5878224796       -0.1357115792        0.5687493152
 O         -3.9967273571       -1.4669455917       -0.7501485759
 C         -2.6553258380       -1.8016799047       -0.6163452768
 O         -2.2928050430       -2.7053675297       -1.3929377708
 O         -1.8122168572        0.5038781308        2.0466587512
 C         -0.4285832434       -1.4500937229        0.5605776235
 C          0.4095535148       -0.8054507752       -0.5177571421
 C          0.4763568870       -1.3238790928       -1.8074884530
 C          1.2292822715       -0.6896456200       -2.7781770567
 C          1.9441641221        0.4576874993       -2.4814416370
 C          1.8825929330        0.9857784110       -1.1980299042
 C          1.1151369004        0.3549057679       -0.2281945672
 H          1.0608513112        0.7893894810        0.7592464977
 N          2.5995126545        2.1505215783       -0.8640266781
 S          3.6143692398        2.0944345350        0.4674537037
 O          2.8435365019        2.0759502898        1.6832946401
 O          4.5114556301        3.2154760663        0.2932955403
 C          4.5015293995        0.5608077508        0.2661141661
 C          4.0470706065       -0.5770285748        0.9009936806
 C          4.6941154890       -1.7795030647        0.6640692346
 C          5.7779441905       -1.8223611264       -0.1990579091
 C          6.2269943157       -0.6690339514       -0.8245007649
 C          5.5806043047        0.5346090646       -0.5958708170
 H          5.9015857480        1.4555845357       -1.0551992149
 H          7.0738893099       -0.7055094369       -1.4906073288
 H          6.2762867736       -2.7610769714       -0.3824447515
 H          4.3462999934       -2.6770323008        1.1501692587
 H          3.2043180003       -0.4991183449        1.5685954718
 H          3.0820233474        2.5689462899       -1.6470518849
 H          2.5363851391        0.9480357487       -3.2392366614
 H          1.2657996890       -1.0976312846       -3.7768432151
 H         -0.0929436749       -2.2067211636       -2.0504178406
 H         -0.1724580636       -0.9649245493        1.5127211097
 C         -0.1569686822       -2.9349213296        0.6911314079
 C          1.0828128643       -3.3876380417        1.3997001797
 C         -0.2584896697       -3.5777269133        2.0404951109
 H         -0.6663720744       -4.5752086153        2.1057765444
 H         -0.5191540951       -2.9454444145        2.8771872463
 H          1.6013768497       -4.2565543281        1.0253478062
 H          1.7290713558       -2.6247588675        1.8066434269
 H         -0.4964940371       -3.5156227316       -0.1558534691
