  62
        -98.94666208
 C         -1.4910578359       -1.6265559278       -0.1050442365
 C         -1.5928749629       -0.5447965494       -1.0152103478
 C         -2.8851445587        0.1564784850       -1.0321992521
 C         -3.8958755810       -0.2644208035       -0.2521808094
 C         -5.2808610171        0.3212024973       -0.1949200691
 C         -5.4137691895        1.5286959347        0.7424566882
 C         -4.7592303063        2.8153495267        0.2382076915
 H         -5.1085917406        3.0286354781       -0.7725773886
 H         -5.1062081658        3.6267137324        0.8811919285
 C         -3.2242503766        2.7919040599        0.2589196751
 H         -2.8770241928        1.9830695002        0.9066659528
 H         -2.8461830235        3.7217395686        0.6903176123
 C         -2.5675859003        2.6379431949       -1.1130096002
 H         -1.4851572326        2.5989555964       -0.9621330511
 H         -2.7891563652        3.5159903874       -1.7247712984
 C         -3.0000547028        1.3835968272       -1.8847379625
 H         -4.0204379717        1.5010739374       -2.2505803366
 H         -2.3320898868        1.2611660490       -2.7408340544
 H         -6.4806495513        1.7185001798        0.8813796785
 H         -4.9928457943        1.2645269512        1.7154048337
 H         -5.6003668810        0.6025302022       -1.1987617894
 H         -5.9373300622       -0.4716318595        0.1705003667
 O         -3.7729914463       -1.3302592259        0.5828897104
 C         -2.5710217810       -2.0065752654        0.6981822280
 O         -2.5907158467       -2.9365515724        1.5308937093
 O         -0.6767118544       -0.1685734672       -1.7922954624
 C         -0.2298189716       -2.4486328817        0.0972169721
 C          0.7143265767       -1.8132022392        1.0926802696
 C          1.3767377183       -2.6015590460        2.0276918789
 C          2.2617862884       -2.0355563848        2.9265387064
 C          2.5120905665       -0.6756043829        2.9034092133
 C          1.8516264273        0.1236888730        1.9769799668
 C          0.9588810662       -0.4482035713        1.0803169453
 H          0.4433002838        0.1892294600        0.3812650283
 N          2.0707157840        1.5071223859        1.9487671932
 S          2.0953391673        2.3403996734        0.4970598792
 O          2.8265558082        3.5519594527        0.8091216411
 O          0.7567198677        2.5288543884        0.0041151185
 C          3.0704450043        1.3248705248       -0.5966355148
 C          4.4235313504        1.2362911752       -0.3288454125
 C          5.2157682503        0.4291075673       -1.1270879269
 C          4.6428277064       -0.2752771184       -2.1756401582
 C          3.2857271504       -0.1702275766       -2.4335351019
 C          2.4849231449        0.6365232151       -1.6381619694
 H          1.4231479472        0.7235401547       -1.8101027826
 H          2.8376260638       -0.7153814970       -3.2494360290
 H          5.2572801233       -0.9079482658       -2.7967049140
 H          6.2728268597        0.3496478302       -0.9306420133
 H          4.8323220854        1.8113810259        0.4861536857
 H          2.7899290762        1.8354130951        2.5760612723
 H          3.2022141800       -0.2305689205        3.6036868849
 H          2.7642153337       -2.6581067134        3.6509116940
 H          1.1799304627       -3.6626638443        2.0582236259
 H         -0.5648729393       -3.4038368029        0.5255291654
 C          0.5196237587       -2.7400811413       -1.1899725336
 C          1.3753358044       -3.9654072673       -1.2856190134
 C          0.0890152512       -3.8872978337       -2.0511471496
 H          0.1255829845       -3.7674935470       -3.1233550806
 H         -0.7457582851       -4.4821388506       -1.7088348427
 H          2.3039521770       -3.9008394204       -1.8310790016
 H          1.4124851455       -4.6233149112       -0.4310165491
 H          0.8637267219       -1.8454462755       -1.6898797220
