  62
        -98.94457132
 C          2.2972890255        1.3559691230        0.1257402296
 C          2.0826376486        0.4455391973       -0.9370298320
 C          2.9997036570       -0.7031245702       -0.9898913475
 C          3.9530880897       -0.8356695963       -0.0503403076
 C          4.8954026652       -1.9983696965        0.0579849734
 C          4.3125425951       -3.1000721830        0.9551272382
 C          2.8725778840       -3.4832574391        0.6122290570
 H          2.5817841569       -4.2875955079        1.2911545602
 H          2.2178892446       -2.6338322476        0.8210177231
 C          2.6653477433       -3.9395233840       -0.8388835191
 H          3.6234518134       -4.2152958008       -1.2809274083
 H          2.0404254499       -4.8351624034       -0.8391429677
 C          1.9731191312       -2.9106297982       -1.7346114902
 H          1.6798478116       -3.4080109044       -2.6630957089
 H          1.0622997751       -2.5530054359       -1.2484159101
 C          2.8118100161       -1.6842601911       -2.1128625911
 H          3.7759900060       -2.0024313501       -2.5139718396
 H          2.2746054514       -1.1439440260       -2.8979122176
 H          4.3358720930       -2.7510062654        1.9900383821
 H          4.9534950337       -3.9803748374        0.8794380789
 H          5.0960647175       -2.3926459955       -0.9362853292
 H          5.8311671808       -1.6443353310        0.4936763089
 O          4.1302651400        0.0603712112        0.9534401778
 C          3.3095181303        1.1679410619        1.0708457842
 O          3.5766330539        1.9031799300        2.0421012066
 H         -0.7881702495        2.1717823269       -1.2747847610
 C         -0.9791804568        1.9671524664       -0.2339092885
 C          0.0311930896        2.1351837129        0.6987996648
 C         -0.2327992018        1.8276680381        2.0310557984
 C         -1.4840015630        1.3865721218        2.4187373237
 C         -2.4946461407        1.2262875232        1.4857417364
 C         -2.2317644170        1.5036367047        0.1510165884
 N         -3.2322592404        1.3290523477       -0.8143997099
 S         -4.3929696937        0.1478380964       -0.6359297521
 O         -4.8545459898       -0.1269550693       -1.9786758460
 O         -5.4021563262        0.5990347812        0.2913432478
 C         -3.5826908067       -1.2953332134        0.0352774616
 C         -2.4308450403       -1.7645868474       -0.5642537121
 C         -1.8354768669       -2.9093639678       -0.0587190641
 C         -2.3928647866       -3.5603621189        1.0308114148
 C         -3.5489400357       -3.0757346168        1.6219579550
 C         -4.1516354167       -1.9340864745        1.1192027811
 H         -5.0512378499       -1.5217886323        1.5471152658
 H         -3.9819661778       -3.5824511107        2.4692990148
 H         -1.9215835486       -4.4496284006        1.4184847046
 H         -0.9366023403       -3.2897672079       -0.5176854830
 H         -2.0067282985       -1.2397190213       -1.4059923990
 H         -2.9121591815        1.4122779623       -1.7672960547
 H         -3.4802380958        0.9018445301        1.7773809387
 H         -1.6780994580        1.1651390915        3.4571519140
 H          0.5601555392        1.9380913441        2.7578520861
 C          1.4180500971        2.5837602665        0.3065714820
 H          1.8458653475        3.1348041661        1.1544630085
 C          1.4459502867        3.4792569856       -0.9149296509
 C          0.9295693614        4.8814074356       -0.8051047827
 C          2.4000036250        4.6331447793       -0.9533682264
 H          2.8731946699        4.8790589113       -1.8923176788
 H          3.0347528425        4.7863622409       -0.0927083988
 H          0.3918163190        5.3019783396       -1.6411432379
 H          0.5638508013        5.2024179477        0.1586216101
 H          1.2797121963        2.9490395712       -1.8441442582
 O          1.1791389242        0.5720340275       -1.8050721633
