  62
        -98.94365518
 C         -1.7819412349       -0.5170213712        0.4405973565
 C         -2.9568338866       -0.5150756025        1.2290689399
 C         -4.2151685196       -0.7066153080        0.4995877583
 C         -4.1923840051       -0.8904327408       -0.8333136765
 C         -5.3905005484       -1.1189236842       -1.7146101644
 C         -6.0968142123        0.1711573567       -2.1536699999
 C         -6.8954628845        0.8806772796       -1.0594357049
 H         -7.5085759306        1.6389991954       -1.5505896204
 H         -7.5741231425        0.1697456988       -0.5871509542
 C         -6.0334837198        1.5621204224        0.0125776311
 H         -6.4150692797        2.5679890915        0.2021556177
 H         -5.0117018741        1.6727791858       -0.3582444213
 C         -5.9966581358        0.8314237710        1.3549653416
 H         -5.3304460646        1.3798960047        2.0260795965
 H         -6.9944549102        0.8305633922        1.7993193686
 C         -5.4969590734       -0.6169165577        1.2715132983
 H         -5.2994723640       -0.9703980971        2.2865130858
 H         -6.2591556386       -1.2526106225        0.8216177112
 H         -5.3502480064        0.8561735908       -2.5622017426
 H         -6.7835939083       -0.0920294773       -2.9614100521
 H         -6.1019582196       -1.7696193560       -1.2055172511
 H         -5.0259604092       -1.6320530488       -2.6070147318
 O         -3.0384857896       -0.9080705553       -1.5519736447
 C         -1.8094017858       -0.6999553877       -0.9420957712
 O         -0.8403692284       -0.7077781977       -1.7236917882
 O         -2.9539377713       -0.3574612790        2.4798895048
 C         -0.4414002408       -0.2983083156        1.1166581966
 C          0.2392537247        0.9225560281        0.5490009249
 C         -0.4969882171        2.0943729008        0.3897150241
 C          0.0864308181        3.2302888696       -0.1350318012
 C          1.4219933945        3.2285146534       -0.4984311978
 C          2.1698048994        2.0703227211       -0.3313521425
 C          1.5773048190        0.9270908832        0.1891641393
 H          2.1751274589        0.0400308500        0.3122146927
 N          3.5190657413        2.0301983796       -0.7075390508
 S          4.6304438356        1.1711948424        0.1962332443
 O          4.3266600785        1.2233708211        1.6072877118
 O          5.9131771575        1.7180972116       -0.1933989649
 C          4.5184709148       -0.5043237350       -0.3951528407
 C          4.2800585552       -0.7352080526       -1.7352332898
 C          4.2348752089       -2.0433690823       -2.1901120589
 C          4.4359568620       -3.0921475147       -1.3056811853
 C          4.6811582839       -2.8434029729        0.0357757791
 C          4.7234597527       -1.5373485474        0.4980829071
 H          4.8995139788       -1.2982081939        1.5349679187
 H          4.8370900541       -3.6605014357        0.7223471999
 H          4.3993161666       -4.1090852964       -1.6634652342
 H          4.0396433925       -2.2405156006       -3.2319727064
 H          4.1216531036        0.1007152731       -2.3958503581
 H          3.8982596413        2.9007131285       -1.0495061640
 H          1.8799453012        4.1150601646       -0.9102228138
 H         -0.5003477621        4.1282890010       -0.2585102211
 H         -1.5393301905        2.0994102084        0.6788633102
 H         -0.6750955121       -0.0966410664        2.1732455494
 C          0.3991542505       -1.5552698387        1.0363693182
 C          1.4136514443       -1.8581849147        2.0969099829
 C          0.1483205203       -2.6570011263        2.0203045505
 H          0.2030469241       -3.6785090751        1.6756984549
 H         -0.6118289288       -2.4884464816        2.7691385334
 H          2.3372327418       -2.3322906009        1.8012653176
 H          1.5236042572       -1.1475859277        2.9024412514
 H          0.6272991087       -1.8377284578        0.0144487572
