  62
        -98.94617441
 C          1.2351138521        1.1276491671        0.5268440587
 C          1.7212244134        0.5587855815       -0.6760168751
 C          2.5244316635       -0.6645921930       -0.5217501279
 C          2.6514431151       -1.2240833316        0.6941235851
 C          3.4826728162       -2.4356245103        1.0000142626
 C          4.9093387345       -2.0385184883        1.4061801898
 C          5.5676409789       -1.0356730734        0.4582866918
 H          5.0294268805       -0.0865850471        0.5128525697
 H          6.5778164579       -0.8528023595        0.8312278137
 C          5.6389410647       -1.4945008486       -1.0049710828
 H          6.6363208826       -1.2747309386       -1.3916365434
 H          5.5019628436       -2.5750490541       -1.0610793169
 C          4.6381368406       -0.8070894122       -1.9359895853
 H          4.9203599839       -1.0374853401       -2.9666680354
 H          4.7076799335        0.2765072802       -1.8124744777
 C          3.1723493441       -1.2231008071       -1.7572758968
 H          3.1027102760       -2.3123372560       -1.7782629451
 H          2.6047600797       -0.8200673331       -2.6007809547
 H          5.5174335613       -2.9433492821        1.4610616190
 H          4.8741642937       -1.5928604300        2.4031276921
 H          3.0194061510       -2.9750404402        1.8281201866
 H          3.5108328726       -3.0841265303        0.1266131994
 O          2.0607234911       -0.7158956947        1.8065576625
 C          1.3643573548        0.4780725021        1.7554563174
 O          0.9020817431        0.8489659619        2.8551528548
 O          1.5160046795        1.0429717172       -1.8172758124
 C          0.4686240404        2.4426572556        0.5230276787
 C         -0.9082377557        2.1801239544       -0.0354784939
 C         -1.3258300713        2.5810346745       -1.2967396711
 C         -2.5872281611        2.2396259209       -1.7565341439
 C         -3.4536728993        1.4986265420       -0.9735870723
 C         -3.0432994147        1.0962637446        0.2910540359
 C         -1.7821446610        1.4367850481        0.7497879756
 H         -1.4568038803        1.1124407227        1.7304015431
 N         -3.9095035968        0.3122859927        1.0878958460
 S         -4.2731247772       -1.1872462647        0.4305436589
 O         -5.2507832569       -1.0171575630       -0.6136085090
 O         -4.6698899033       -2.0189558680        1.5439979454
 C         -2.7294514075       -1.7505250219       -0.2628325218
 C         -2.5069724738       -1.6372218961       -1.6197838489
 C         -1.2735735895       -2.0104664447       -2.1283670416
 C         -0.2895603608       -2.4836575640       -1.2755030143
 C         -0.5272371731       -2.5886184517        0.0860941392
 C         -1.7568909010       -2.2138112837        0.6006762019
 H         -1.9765803445       -2.2851898120        1.6545144171
 H          0.2437549000       -2.9507732017        0.7477494990
 H          0.6705987765       -2.7695766628       -1.6729085416
 H         -1.0791855214       -1.9246802334       -3.1850742438
 H         -3.2996981488       -1.2664872000       -2.2484498940
 H         -3.5603940478        0.1860242471        2.0281585761
 H         -4.4334223650        1.2134022785       -1.3213041686
 H         -2.8984598514        2.5537820815       -2.7410483991
 H         -0.6581200353        3.1453435569       -1.9259617631
 H          0.3498652000        2.7221065751        1.5792821216
 C          1.2270084934        3.5426590223       -0.1864206428
 C          0.8410209446        4.9702062398        0.0538811266
 C          2.1269145588        4.4376685427        0.6093108611
 H          3.0555672691        4.7623802699        0.1643711586
 H          2.1916442064        4.2654527811        1.6741725429
 H          0.8867665137        5.6640116885       -0.7714440119
 H          0.0310754271        5.1588282284        0.7424389638
 H          1.5575667442        3.2647658472       -1.1789258245
