  62
        -98.93404452
 C          1.7989805897        0.7900456760        0.0361276858
 C          2.5418462872        0.2133190639        1.0968804685
 C          3.6714327110       -0.6473270015        0.7159961178
 C          3.8979342726       -0.8870136267       -0.5881419443
 C          5.0537372430       -1.6701762448       -1.1426796639
 C          6.3345184762       -0.8118533983       -1.1088674302
 C          7.4199171559       -1.3353711812       -0.1680792312
 H          8.1717704573       -0.5497422627       -0.0672407938
 H          7.9047414295       -2.1975911875       -0.6307710902
 C          6.9483525605       -1.7562398891        1.2272341003
 H          7.8406851181       -1.8464794439        1.8503277718
 H          6.5013086346       -2.7504152517        1.1793675188
 C          5.9605172146       -0.8065619410        1.9171000037
 H          6.0619396031        0.2053800197        1.5241672090
 H          6.2167034228       -0.7625913066        2.9776267144
 C          4.4859223258       -1.2425952232        1.8312436869
 H          3.9754863426       -0.9302138853        2.7472656126
 H          4.4307997901       -2.3338271073        1.7813959669
 H          6.0586371327        0.2040706441       -0.8182114486
 H          6.7552021030       -0.7467216825       -2.1134152692
 H          4.8020419917       -1.9383506251       -2.1690224405
 H          5.1895024140       -2.5835496382       -0.5675040666
 O          3.1220192037       -0.3727743318       -1.5757428121
 C          2.0526691524        0.4720811366       -1.2990255259
 O          1.4330025361        0.8454449280       -2.3107381549
 O          2.2656201404        0.4047688630        2.3120298525
 C          0.6415097532        1.7012851233        0.4043450183
 C         -0.6037097746        1.2871546487       -0.3385702710
 C         -1.3158946410        2.1259452237       -1.1842935975
 C         -2.4471400611        1.6663378966       -1.8371926000
 C         -2.8949699730        0.3713206730       -1.6580825917
 C         -2.1947971212       -0.4738278168       -0.8055346717
 C         -1.0676480886       -0.0093990891       -0.1468236516
 H         -0.5195001602       -0.6711343962        0.5131134587
 N         -2.6473661357       -1.7892638598       -0.6082033573
 S         -4.2851503089       -2.0296410145       -0.3685572849
 O         -4.3782899643       -3.2405818190        0.4170682528
 O         -4.9662222046       -2.0525550395       -1.6390495192
 C         -4.8302142739       -0.6218159136        0.5829410793
 C         -4.2396439532       -0.3992425704        1.8112580810
 C         -4.6255110011        0.7071456064        2.5499652813
 C         -5.5912202796        1.5678682952        2.0505243470
 C         -6.1788113703        1.3275511898        0.8184805420
 C         -5.7946467102        0.2236048784        0.0740047030
 H         -6.2222436003        0.0012517714       -0.8900288445
 H         -6.9309546795        1.9971713521        0.4337509509
 H         -5.8867076882        2.4301801205        2.6270118683
 H         -4.1689049636        0.8951920757        3.5084974793
 H         -3.4949776990       -1.0894549132        2.1746384082
 H         -2.0947318079       -2.3237049297        0.0451010649
 H         -3.7617835174       -0.0060204937       -2.1759897863
 H         -2.9838467923        2.3252891970       -2.5023697626
 H         -0.9710849549        3.1319815000       -1.3556410618
 H          0.4737945248        1.5006732713        1.4760340708
 C          0.9510594858        3.1862582326        0.2907539751
 C          2.3537405835        3.6947808459        0.4325722285
 C          1.6583344027        3.7749005527       -0.8916820474
 H          1.3434991827        4.7461312209       -1.2447341343
 H          1.9632999618        3.1031628233       -1.6783452814
 H          2.5162754168        4.6067164342        0.9872659925
 H          3.1411841203        2.9647245844        0.5527842550
 H          0.1747815131        3.7950229325        0.7438299412
