  62
        -98.93872522
 C         -2.6745822269       -0.0918401474       -0.2539806060
 C         -2.7097255572        0.8494935660        0.8068143382
 C         -2.3748274283        2.2373226103        0.4710565152
 C         -2.0517022949        2.5414217593       -0.7983960746
 C         -1.6788552126        3.9115855410       -1.2861067386
 C         -0.1628438602        4.1410044814       -1.2412455199
 C          0.4844917903        3.7768657832        0.0950320480
 H          0.4444487543        2.6927729388        0.2250967994
 H          1.5412340759        4.0450450697        0.0215089870
 C         -0.1330241000        4.4708751464        1.3169771215
 H          0.6760911767        4.8171172375        1.9634892232
 H         -0.6938795334        5.3510580443        0.9995510439
 C         -1.0321990570        3.5763136915        2.1727293457
 H         -0.5170903424        2.6343325488        2.3787759605
 H         -1.1999836532        4.0779797586        3.1298022714
 C         -2.4089283750        3.2496528920        1.5806769017
 H         -2.8966179638        4.1693505859        1.2500943464
 H         -3.0164568300        2.8024176981        2.3729868135
 H          0.3034302236        3.5293346960       -2.0177285196
 H          0.0310533949        5.1912895929       -1.4702862819
 H         -2.0201805127        4.0095594592       -2.3185936044
 H         -2.1868183049        4.6550237344       -0.6740985393
 O         -2.0199721284        1.6170853719       -1.7897154585
 C         -2.2912680489        0.2736061385       -1.5449095160
 O         -2.1783982795       -0.4427546287       -2.5574202422
 O         -3.0288288632        0.5353388801        1.9863614525
 C         -2.9697809946       -1.5306755690        0.1350924736
 C         -1.7547142721       -2.1339893937        0.7969798128
 C         -1.8687750321       -2.9743635198        1.8970714818
 C         -0.7387944620       -3.5123863641        2.4898557748
 C          0.5226624006       -3.1917584366        2.0244688384
 C          0.6477841765       -2.3303960169        0.9379541051
 C         -0.4872111332       -1.8407860407        0.3129041398
 H         -0.3798229339       -1.2055600576       -0.5541650812
 N          1.9210608313       -1.9123975562        0.5122901931
 S          2.1268108423       -0.6494098665       -0.5665689740
 O          1.3380725041        0.4673790336       -0.1158691579
 O          1.9351325917       -1.0912781707       -1.9324172323
 C          3.8562935250       -0.3173157477       -0.2888329244
 C          4.8038624295       -0.8521078493       -1.1402962672
 C          6.1454583393       -0.6096663274       -0.8890882569
 C          6.5149138604        0.1581177650        0.2048070234
 C          5.5523649421        0.6907838109        1.0496922591
 C          4.2099201401        0.4515897215        0.8034753150
 H          3.4255582299        0.8503167575        1.4259831909
 H          5.8422411838        1.2905156119        1.8973572330
 H          7.5592373271        0.3455094018        0.3984603414
 H          6.8953927238       -1.0192769259       -1.5464289477
 H          4.4691725221       -1.4335309551       -1.9843751815
 H          2.6211128551       -2.6347257136        0.4436696747
 H          1.4057382593       -3.5875893242        2.5003345448
 H         -0.8418772323       -4.1737078491        3.3366509268
 H         -2.8479121958       -3.1926733576        2.2973237122
 H         -3.7581648212       -1.4690289148        0.9040289046
 C         -3.5055879794       -2.3894112872       -0.9991645384
 C         -2.6602244616       -3.3794059176       -1.7368593633
 C         -3.7290523289       -3.8601669649       -0.8045512065
 H         -4.6187782894       -4.3027625671       -1.2257108393
 H         -3.4138804044       -4.2976460825        0.1300585749
 H         -2.8079966510       -3.4683824801       -2.8020573342
 H         -1.6283516587       -3.4831312600       -1.4368780796
 H         -4.2443887247       -1.8588869809       -1.5905595101
