  62
        -98.93773646
 C         -1.8056488174       -1.0310664338        0.4617256195
 C         -2.7412095828       -0.9356956523       -0.5947762973
 C         -4.0562348462       -0.3544656144       -0.2584895711
 C         -4.2876913486        0.0933887494        0.9889593621
 C         -5.5262371954        0.6895291028        1.6251570719
 C         -6.7010909273        1.1510832060        0.7671670308
 C         -6.4148537713        2.3753669431       -0.1022479571
 H         -7.2775345302        2.5444359201       -0.7503235158
 H         -6.3130978183        3.2470897642        0.5492711906
 C         -5.1555381164        2.2951995834       -0.9616701783
 H         -5.0649965742        3.2366235674       -1.5105320898
 H         -4.2762646012        2.2142844811       -0.3189298709
 C         -5.1307408681        1.1592116980       -1.9820450726
 H         -4.2550976200        1.3090430284       -2.6194982880
 H         -6.0187113549        1.2143096233       -2.6148698143
 C         -5.0362625435       -0.2579267829       -1.3923170220
 H         -6.0132775055       -0.6257425685       -1.0886375417
 H         -4.6635910143       -0.9231278584       -2.1766359536
 H         -7.0700784593        0.3291626693        0.1608030821
 H         -7.5047890434        1.4191257885        1.4584340434
 H         -5.8890684687       -0.0668543958        2.3300298946
 H         -5.1744287267        1.5301527693        2.2319584562
 O         -3.3348396128        0.0194027711        1.9653821638
 C         -2.0878217393       -0.5252472480        1.7313325962
 O         -1.3251150435       -0.5023944106        2.7196426974
 O         -2.5150988178       -1.3258949950       -1.7687998421
 C         -0.4159286356       -1.6159370515        0.2631173831
 C          0.4335546740       -0.6051335446       -0.4677029532
 C          0.5763546906       -0.5932155763       -1.8494574039
 C          1.3608864277        0.3682292527       -2.4630218211
 C          2.0272368519        1.3230561233       -1.7158622014
 C          1.8876909312        1.3192665943       -0.3342425697
 C          1.0935191403        0.3626403937        0.2789095734
 H          0.9743596459        0.3669403384        1.3550786811
 N          2.6131352297        2.2574148223        0.4349232772
 S          4.2801444284        2.0823133808        0.3073115073
 O          4.8295384192        2.6292459299        1.5275798411
 O          4.7262818736        2.6937857520       -0.9185471797
 C          4.5167791846        0.3154941607        0.2330636579
 C          4.3573583206       -0.4114805810        1.3960525081
 C          4.4246387739       -1.7938924776        1.3374144594
 C          4.6379751581       -2.4225896006        0.1200308475
 C          4.7998707645       -1.6782507750       -1.0379915640
 C          4.7372798642       -0.2951629166       -0.9847993013
 H          4.8559094602        0.3199974471       -1.8612594322
 H          4.9658497036       -2.1708197711       -1.9822449648
 H          4.6783178215       -3.4996891703        0.0748616752
 H          4.3007278888       -2.3748950850        2.2375178697
 H          4.1926529580        0.1120277675        2.3246331229
 H          2.3468408583        2.2515827182        1.4098864666
 H          2.6597083042        2.0655682556       -2.1753912354
 H          1.4595039725        0.3705107326       -3.5377754727
 H          0.0535962943       -1.3256890997       -2.4417436188
 H          0.0013594902       -1.7274075283        1.2730186091
 C         -0.4277999221       -2.9750198182       -0.4043485459
 C          0.8372947772       -3.7784380701       -0.4080160872
 C         -0.3198562878       -4.2053860521        0.4428357187
 H         -0.8806945317       -5.0806955307        0.1510943833
 H         -0.2459780992       -4.0729387645        1.5125751968
 H          1.0743970326       -4.3626671532       -1.2834252614
 H          1.6977979725       -3.3468277392        0.0814718986
 H         -1.0670200555       -3.0264359478       -1.2754856445
