  62
        -98.93970347
 C          0.9020326952        1.2316794971       -0.2796415394
 C          1.9654941753        1.2656521469        0.6575495421
 C          2.9269064463        0.1499821735        0.6302052954
 C          2.7679955434       -0.8281624675       -0.2801164530
 C          3.5828066518       -2.0723084491       -0.5682572217
 C          4.9321300217       -2.2955774955        0.1090470226
 C          6.0463747703       -1.3657608815       -0.3724468394
 H          6.3202043733       -1.6537346479       -1.3907022299
 H          6.9219613513       -1.5191271106        0.2619865801
 C          5.7023318926        0.1213880802       -0.3946495057
 H          4.8665587557        0.2955211343       -1.0753356720
 H          6.5644657998        0.6582415260       -0.7999449071
 C          5.3707290853        0.7344888026        0.9637666375
 H          5.2825883270        1.8156428218        0.8260635092
 H          6.1920365132        0.5528696770        1.6599619135
 C          4.0646088432        0.2410355793        1.6068872570
 H          3.7626522474        0.9755601438        2.3590478093
 H          4.2113978617       -0.7076257727        2.1166946793
 H          5.2354276681       -3.3191236001       -0.1272864048
 H          4.8247197517       -2.2408360596        1.1881785445
 H          3.7210771362       -2.0931862601       -1.6541972738
 H          2.9300629332       -2.9165976731       -0.3272218204
 O          1.7142380635       -0.8323479328       -1.1463012783
 C          0.7588438237        0.1709544063       -1.1719584360
 O         -0.1266198711       -0.0139774678       -2.0293167968
 O          2.1127779066        2.2027182655        1.4870333703
 C         -0.0623634471        2.4057827613       -0.2575711024
 C         -1.2884731347        2.0806764879        0.5607961513
 C         -1.5234016402        2.7408451740        1.7617889704
 C         -2.6409331955        2.4459006525        2.5215406553
 C         -3.5368966186        1.4799952619        2.1027382396
 C         -3.3073792144        0.8088459764        0.9053834968
 C         -2.1921376893        1.1147330180        0.1381492319
 H         -2.0264366299        0.5891629608       -0.7893260463
 N         -4.2007085419       -0.1781136810        0.4727743876
 S         -3.7387644122       -1.4198546179       -0.5353916454
 O         -3.6537316733       -0.9562235528       -1.8963049605
 O         -4.7366943031       -2.4446923384       -0.2953298511
 C         -2.1613448812       -2.0254919846        0.0391372113
 C         -1.3183582028       -2.6067607383       -0.8848714252
 C         -0.1268948494       -3.1653283370       -0.4509938760
 C          0.2041737244       -3.1238966164        0.8938307180
 C         -0.6501650749       -2.5310896794        1.8096378487
 C         -1.8497530029       -1.9847949502        1.3834850982
 H         -2.5288097462       -1.5274523005        2.0843640039
 H         -0.3860250837       -2.4937015467        2.8543811960
 H          1.1328846878       -3.5548594043        1.2346875880
 H          0.5379334798       -3.6192095913       -1.1686355032
 H         -1.5993545396       -2.5949367092       -1.9255202012
 H         -4.9034241217       -0.4601217577        1.1394457420
 H         -4.4085399661        1.2428919177        2.6933047919
 H         -2.8132272893        2.9677217207        3.4503691812
 H         -0.8137287916        3.4799876238        2.1027856405
 H          0.4789808396        3.2076492864        0.2633584298
 C         -0.4453317445        2.9086892994       -1.6349107821
 C         -0.9235424702        4.3211380600       -1.7817122120
 C          0.4219484750        3.9260027658       -2.3108410149
 H          0.5594225158        3.8561072909       -3.3794879174
 H          1.2987097002        4.2677223977       -1.7799211506
 H         -1.7148236920        4.5249324658       -2.4867445306
 H         -0.9576071144        4.9331934386       -0.8930485413
 H         -0.9053087680        2.1548263600       -2.2607518608
