  62
        -98.94646550
 C          2.2903765804        0.6535355617       -0.0789347097
 C          1.3839534100        0.8579161210        0.9845456801
 C          0.6086623893        2.1097709006        0.9574131101
 C          0.7682850191        2.9508697008       -0.0788813097
 C          0.0168650284        4.2266520404       -0.3419501197
 C         -1.2152448812        3.9557318799       -1.2236096101
 C         -2.4893591712        3.6135790490       -0.4540030504
 H         -2.8359698719        4.4980605487        0.0854495196
 H         -3.2519810609        3.3538336287       -1.1919671207
 C         -2.3465754608        2.4491662389        0.5292430394
 H         -1.7565413002        1.6602468793        0.0592982994
 H         -3.3416160406        2.0369861783        0.7121972591
 C         -1.7234243014        2.8611922190        1.8706432596
 H         -2.3503309014        2.4912249685        2.6842823694
 H         -1.7294284620        3.9489562490        1.9430507998
 C         -0.3041088511        2.3364178498        2.1319412599
 H          0.1994322783        3.0114161900        2.8324840801
 H         -0.3637744307        1.3611318497        2.6237805697
 H         -0.9743379706        3.1307882901       -1.9003627801
 H         -1.4117896116        4.8382558799       -1.8363802700
 H          0.6984104481        4.8843172409       -0.8855599894
 H         -0.2663200021        4.7069100601        0.5903697103
 O          1.6413238395        2.7080511915       -1.0955020396
 C          2.4091613401        1.5596762020       -1.1305159096
 O          3.1528386005        1.4611636426       -2.1294192994
 O          1.2175661303        0.0231276108        1.9143930699
 C          3.0850707712       -0.6393610978       -0.1466707398
 C          2.1211822319       -1.8022572484       -0.1349541302
 C          2.2801961523       -2.9372005484        0.6493400696
 C          1.3195956429       -3.9345967490        0.6363212592
 C          0.1772036131       -3.8126385795       -0.1338044711
 C          0.0165105526       -2.6864752195       -0.9339297709
 C          1.0025340520       -1.7139982389       -0.9537376805
 H          0.8733650717       -0.8469163488       -1.5846055804
 N         -1.1284755973       -2.5132806700       -1.7351950712
 S         -2.0401563382       -1.1152305506       -1.6074364211
 O         -3.1065947378       -1.2853991110       -2.5707626814
 O         -1.2033643088        0.0439586600       -1.7817502207
 C         -2.7370909986       -1.1440847813        0.0357979187
 C         -1.9073834689       -0.9920313810        1.1288247589
 C         -2.4641106292       -1.0284763615        2.3978812588
 C         -3.8289379492       -1.2127242523        2.5540520184
 C         -4.6477851588       -1.3671178526        1.4456781282
 C         -4.0981709285       -1.3362544821        0.1743464983
 H         -4.6939368382       -1.4489679223       -0.7169601519
 H         -5.7094785187       -1.5099345633        1.5672201079
 H         -4.2549966394       -1.2350846428        3.5447076283
 H         -1.8179567095       -0.9093231713        3.2530863189
 H         -0.8482500990       -0.8394778703        0.9920682092
 H         -1.7446509568       -3.3140779504       -1.7500791614
 H         -0.5840110865       -4.5779364100       -0.1188501814
 H          1.4529163233       -4.8105725890        1.2526319491
 H          3.1496603822       -3.0364057880        1.2782909398
 H          3.6054153614       -0.6287110173       -1.1157991496
 C          4.1130138309       -0.6932649174        0.9638650305
 C          5.3899227914       -1.4544323666        0.7755337007
 C          5.4053400406        0.0438714234        0.7885999709
 H          5.8304846700        0.5504109335        1.6419358511
 H          5.5539295405        0.5651366137       -0.1462683489
 H          5.8098707415       -1.9757489365        1.6224756707
 H          5.5407576520       -1.9528226163       -0.1701791494
 H          3.6607329207       -0.6831978078        1.9487440904
