  62
        -98.94385073
 C         -1.7477718471       -1.2768229525        0.9559061035
 C         -2.8908419164       -0.7685014361        0.2926490452
 C         -3.2027034534        0.6455513223        0.5624630912
 C         -2.4364788578        1.3683134810        1.3963517672
 C         -2.6262123899        2.8178222067        1.7503700055
 C         -2.0195341429        3.7795840058        0.7193351027
 C         -2.8084874347        3.9129474233       -0.5840263462
 H         -3.8585686395        4.1056042062       -0.3588451573
 H         -2.4184816849        4.7895221465       -1.1054618125
 C         -2.6895603575        2.6983060322       -1.5150984483
 H         -1.8156535572        2.1083101264       -1.2279196034
 H         -2.5119307005        3.0415079089       -2.5377759854
 C         -3.9244090518        1.7971090340       -1.5487891974
 H         -3.7065150769        0.9449833974       -2.1979755547
 H         -4.7644304347        2.3451003918       -1.9830964958
 C         -4.3546884735        1.2526639764       -0.1811227294
 H         -4.8124992022        2.0449824849        0.4108895851
 H         -5.0942130828        0.4647252335       -0.3462583182
 H         -1.0036617840        3.4477817629        0.4886122903
 H         -1.9554202966        4.7655515767        1.1863000443
 H         -2.1226928599        2.9735054312        2.7069979193
 H         -3.6878020103        3.0344837839        1.8755297175
 O         -1.3737309939        0.8326240043        2.0503570814
 C         -0.9880451521       -0.4706369683        1.8108295212
 O          0.0383564549       -0.8200088365        2.4316754804
 O         -3.6370134550       -1.4238583089       -0.4796710735
 C         -1.1539597754       -2.6675915589        0.7573448583
 C          0.2252891484       -2.5232339910        0.1601404549
 C          1.2755357724       -3.3518452485        0.5372140163
 C          2.5378370719       -3.1818476239       -0.0038962992
 C          2.7874138030       -2.1547176180       -0.8966233129
 C          1.7460771386       -1.3140896305       -1.2692185342
 C          0.4700617658       -1.5269226468       -0.7731788646
 H         -0.3262238785       -0.8637356699       -1.0781616770
 N          1.9518972353       -0.1965594053       -2.1089510626
 S          1.8002970707        1.2857478050       -1.3287773685
 O          0.4930848701        1.3989083108       -0.7404488315
 O          2.1464131836        2.2765098793       -2.3252983138
 C          3.0690584675        1.2360870273       -0.0758461792
 C          2.8201449113        0.5966478107        1.1220286749
 C          3.8496225118        0.4944120848        2.0462307629
 C          5.0975423937        1.0253109147        1.7600413630
 C          5.3296526726        1.6654616530        0.5515320474
 C          4.3086998569        1.7674125863       -0.3787052361
 H          4.4395874122        2.2586380311       -1.3296174343
 H          6.3000013942        2.0805695000        0.3314877872
 H          5.8923694271        0.9400929724        2.4841427766
 H          3.6599989158       -0.0046078725        2.9830597141
 H          1.8406581317        0.1935817991        1.3308496121
 H          2.8374115577       -0.2154831090       -2.5977117055
 H          3.7797251059       -1.9938770981       -1.2907201980
 H          3.3426349691       -3.8355937517        0.2951248647
 H          1.1035622555       -4.1189790879        1.2778568242
 H         -1.0241811001       -3.1012140544        1.7642255751
 C         -2.0250230503       -3.6259100318       -0.0377251500
 C         -1.8716668685       -3.8127087716       -1.5141441924
 C         -1.4674403307       -4.9095592627       -0.5774162172
 H         -2.0846555540       -5.7934682688       -0.5242083913
 H         -0.4116725524       -5.0973059617       -0.4572923495
 H         -2.7700195898       -3.9242637069       -2.1015071653
 H         -1.0925378239       -3.2572163196       -2.0148099328
 H         -3.0379781062       -3.6626687725        0.3445848693
