  62
        -98.94322750
 C         -1.8819874603       -0.8337522007        0.6346452596
 C         -2.2915885903       -0.4321688104       -0.6600611303
 C         -3.7403927803       -0.4660564702       -0.9084506403
 C         -4.5669138203       -0.8984540202        0.0613613797
 C         -6.0640876504       -0.9306533399       -0.0385121303
 C         -6.6815718401        0.3736053901        0.4852845600
 C         -6.0375055499        1.6354907801       -0.0891660698
 H         -6.5724722598        2.4919577001        0.3270656203
 H         -5.0049941199        1.7009154299        0.2619378401
 C         -6.0559527300        1.7161938903       -1.6220159198
 H         -6.3615325998        2.7227555204       -1.9154191497
 H         -6.7985216001        1.0236997205       -2.0200606199
 C         -4.7048752201        1.4487548302       -2.2882702699
 H         -3.9373881599        2.0752802500       -1.8264417699
 H         -4.7799824801        1.7444453004       -3.3380860299
 C         -4.2208568503       -0.0065425798       -2.2561433702
 H         -5.0066050404       -0.6645880897       -2.6324118203
 H         -3.3571908803       -0.0835875799       -2.9229106302
 H         -7.7480139301        0.3691081703        0.2527973900
 H         -6.5709582901        0.3971555199        1.5720001400
 H         -6.3513109504       -1.0903021597       -1.0758433503
 H         -6.4313524005       -1.7634141100        0.5635858496
 O         -4.1306810604       -1.3136333605        1.2786896396
 C         -2.7840249103       -1.2746606907        1.6018133195
 O         -2.5205659004       -1.6514355810        2.7624394095
 O         -1.4927285503       -0.0605938304       -1.5580827403
 C         -0.4107169203       -0.8044077110        1.0010736495
 C          0.1718856099        0.5754017489        0.8088008697
 C         -0.5979017199        1.6989223790        1.0973371499
 C         -0.0858336897        2.9705181790        0.9296778101
 C          1.2165050403        3.1509525188        0.4985932301
 C          2.0031203001        2.0381224587        0.2325876899
 C          1.4780598199        0.7614672688        0.3811373897
 H          2.1050886098       -0.0879878213        0.1660904995
 N          3.3306789101        2.1813277386       -0.2008684202
 S          4.5178404100        1.2198870983        0.4851652396
 O          4.2026545100        0.8826238281        1.8537428096
 O          5.7489732001        1.9542981381        0.2807103697
 C          4.5644813797       -0.2518534916       -0.5153039606
 C          4.8564972296       -1.4565978017        0.0927773992
 C          4.9512945693       -2.5980602116       -0.6883136110
 C          4.7527786193       -2.5145521613       -2.0577672410
 C          4.4602088495       -1.2966163712       -2.6529575108
 C          4.3695405097       -0.1509195213       -1.8786191206
 H          4.1412426198        0.8096980588       -2.3090814704
 H          4.3024837094       -1.2364679510       -3.7178402808
 H          4.8240768991       -3.4040109612       -2.6638069711
 H          5.1769836892       -3.5457021817       -0.2254415412
 H          4.9901569496       -1.4790656919        1.1624750392
 H          3.6425278503        3.1371924786       -0.2963905400
 H          1.6198748405        4.1441783688        0.3711870602
 H         -0.7025573395        3.8303985390        1.1449952203
 H         -1.6120505999        1.5626015391        1.4482802600
 H         -0.3565054403       -1.0463209712        2.0735321495
 C          0.3301486495       -1.8747682810        0.2237251693
 C          1.4989117894       -2.5901913713        0.8293635991
 C          0.1920889693       -3.3025393810        0.6563192591
 H          0.1166485791       -4.0670901409       -0.1019542311
 H         -0.4083169807       -3.4959723511        1.5336541491
 H          2.3205732793       -2.8665489713        0.1857580690
 H          1.7972126395       -2.3080388915        1.8282916892
 H          0.3493224395       -1.6723695808       -0.8410854907
