  62
        -98.93690797
 C         -1.4452460261       -1.5027636662        0.1516874095
 C         -2.5725094270       -1.0633724895        0.8844507074
 C         -3.3223241486        0.0881229240        0.3438024893
 C         -2.8657135659        0.6870066939       -0.7716188348
 C         -3.4335077649        1.8909036071       -1.4758112811
 C         -3.1269920357        3.2139570118       -0.7523404874
 C         -3.2481441096        3.1647259806        0.7686722901
 H         -2.6106291816        2.3669863039        1.1551606362
 H         -2.8621642592        4.1079246455        1.1648417680
 C         -4.6674938905        2.9821282218        1.3002208222
 H         -5.2836498064        3.8217240997        0.9701595141
 H         -4.6157321945        3.0179027373        2.3916274371
 C         -5.3650207878        1.6824858161        0.8971838078
 H         -5.6893742133        1.7207577343       -0.1391740093
 H         -6.2716685052        1.5981036320        1.5036379095
 C         -4.5530982637        0.4164187617        1.1541183636
 H         -4.2336222979        0.4035994913        2.2026072049
 H         -5.2183255833       -0.4495008463        1.0465495036
 H         -3.7903714973        3.9857295533       -1.1460756842
 H         -2.1004250747        3.5030769090       -0.9891608132
 H         -4.5036932037        1.7646048263       -1.6135799277
 H         -2.9744807047        1.9204272583       -2.4662670345
 O         -1.7408327438        0.2653360041       -1.4139722681
 C         -1.0068270741       -0.8308125185       -0.9911926053
 O         -0.0179231507       -1.0834554057       -1.6998095605
 O         -2.9414014354       -1.6042235708        1.9629924715
 C         -0.6554692579       -2.6787902332        0.6982450822
 C          0.8153039922       -2.3447415748        0.6878592111
 C          1.7831809749       -3.1137386461        0.0572358559
 C          3.1090068057       -2.7142140146        0.0617107116
 C          3.4975768325       -1.5442482127        0.6866064365
 C          2.5358890721       -0.7666756333        1.3192930365
 C          1.2132033117       -1.1760501146        1.3269094444
 H          0.4655861454       -0.5649170808        1.8189901966
 N          2.9140125198        0.4431732930        1.9384562396
 S          3.6908116417        1.5649032794        0.9632252442
 O          5.0509107471        1.1386516790        0.7498248432
 O          3.5225579187        2.8319888191        1.6401757998
 C          2.7954395761        1.5564180522       -0.5769612088
 C          1.5946910667        2.2347421306       -0.6386552439
 C          0.8656563911        2.1976817672       -1.8147492159
 C          1.3377780030        1.4736695923       -2.8974939674
 C          2.5427070348        0.7954157921       -2.8179571934
 C          3.2816683127        0.8348345372       -1.6473552723
 H          4.2245767398        0.3229862760       -1.5467558138
 H          2.9018144277        0.2264975341       -3.6601034788
 H          0.7567932361        1.4313767717       -3.8049503635
 H         -0.0769859606        2.7173759205       -1.8806437721
 H          1.2584711475        2.7878190209        0.2248673341
 H          2.1509606935        0.8924746623        2.4247580600
 H          4.5227976008       -1.2109623831        0.6851213785
 H          3.8498467718       -3.3199798027       -0.4375861197
 H          1.4986240133       -4.0141169612       -0.4613496488
 H         -0.9781774675       -2.7597290837        1.7503220664
 C         -0.9800331973       -4.0133209850        0.0446162129
 C         -2.3116925933       -4.2547400889       -0.5993603609
 C         -1.0762542173       -4.1725277018       -1.4421233066
 H         -0.6993781532       -5.0828244332       -1.8851617881
 H         -0.9211311913       -3.2939481923       -2.0478969622
 H         -2.7806251366       -5.2175387425       -0.4611310797
 H         -3.0097795026       -3.4308085220       -0.6319035958
 H         -0.5598446663       -4.8476543952        0.5979992096
