  62
        -98.94358287
 C         -1.7596036120        1.1699557674       -0.4136953731
 C         -1.9097997962        0.1678325663        0.5751677519
 C         -3.2906310956       -0.1056603089        1.0001539641
 C         -4.3006435749        0.5977486127        0.4565614914
 C         -5.7550683580        0.3822654417        0.7579290290
 C         -6.3800940230       -0.6279315144       -0.2144778950
 C         -5.5722647864       -1.9163845766       -0.3708670018
 H         -6.1235018035       -2.5644224122       -1.0558145541
 H         -4.6174344341       -1.6834947369       -0.8479614393
 C         -5.3108869734       -2.6654424452        0.9432697478
 H         -6.0077986851       -2.3233831866        1.7092724121
 H         -5.5014722187       -3.7288365275        0.7835887829
 C         -3.8793865309       -2.5428279707        1.4688092291
 H         -3.1735999339       -2.7937405401        0.6727986529
 H         -3.7471589042       -3.2776275129        2.2673940901
 C         -3.4936799045       -1.1722178564        2.0391850606
 H         -4.2356279836       -0.8579342012        2.7759500407
 H         -2.5299714060       -1.2826837669        2.5445498628
 H         -7.3860283776       -0.8670955514        0.1353998236
 H         -6.4654216002       -0.1561851500       -1.1962272835
 H         -5.8603690149        0.0294854333        1.7819508108
 H         -6.2726072953        1.3377206175        0.6570095467
 O         -4.1133279457        1.5645190352       -0.4787835325
 C         -2.8443030881        1.8651653809       -0.9464259654
 O         -2.8142019472        2.7533146792       -1.8229318437
 H          2.1227483626        0.4554194882       -0.4393337284
 C          1.5493541609       -0.1296849929       -1.1367169575
 C          0.2758903439        0.2751038473       -1.5007318459
 C         -0.4297424860       -0.4915980333       -2.4250723897
 C          0.1224651789       -1.6408652368       -2.9553833742
 C          1.3894764406       -2.0503815668       -2.5773969219
 C          2.1050183257       -1.2897618368       -1.6606620031
 N          3.3676499772       -1.7048384542       -1.2279654100
 S          4.5088590429       -0.6569110314       -0.6202021132
 O          4.5974089563        0.5546872877       -1.4020642936
 O          5.7178782551       -1.4502710702       -0.5544653154
 C          3.9595257267       -0.2812026037        1.0314389692
 C          4.1693729510        0.9906246133        1.5268083536
 C          3.7563948912        1.2861442563        2.8159636443
 C          3.1455959422        0.3076264652        3.5847865097
 C          2.9483867497       -0.9663963567        3.0751552578
 C          3.3604093073       -1.2685101353        1.7873002538
 H          3.2112121174       -2.2460399673        1.3601555505
 H          2.4674551939       -1.7229689367        3.6739561006
 H          2.8181249545        0.5405626587        4.5858485183
 H          3.9077753567        2.2769907054        3.2141273593
 H          4.6384152349        1.7234086234        0.8889857207
 H          3.7613789582       -2.5079322832       -1.6928966620
 H          1.8179222364       -2.9536119045       -2.9840823985
 H         -0.4373538262       -2.2260699178       -3.6696809705
 H         -1.4218392615       -0.1737775365       -2.7175128577
 C         -0.3738030512        1.5122680505       -0.9305631741
 H         -0.5203560213        2.2309071500       -1.7503448702
 C          0.4382511637        2.1762652658        0.1620383726
 C          1.5380891863        3.1309539737       -0.1888622085
 C          0.2618540271        3.6436145899        0.4060450649
 H          0.2746070188        4.0022657455        1.4241044657
 H         -0.4276144099        4.1735293034       -0.2353219145
 H          2.4282468102        3.1370955134        0.4215115541
 H          1.7254569937        3.3167042577       -1.2358444755
 H          0.5725931616        1.5377303072        1.0280570289
 O         -0.9456752947       -0.4651690568        1.0769818209
