  62
        -98.94397332
 C         -1.9347594336       -0.8831568797       -0.3935755131
 C         -0.9560034552       -1.4658102031       -1.2278515390
 C         -0.1662063101       -2.5682632246       -0.6521552730
 C         -0.3994042196       -2.9397990483        0.6185664870
 C          0.3187095523       -3.9962673738        1.4132444798
 C          1.4826179767       -3.3824447482        2.2111692609
 C          2.8155028819       -3.3494678322        1.4666534452
 H          3.5270983779       -2.8138702255        2.0993968750
 H          3.1862478072       -4.3689309492        1.3371808834
 C          2.7554881350       -2.6562004368        0.1038100895
 H          2.1379942145       -1.7616014181        0.1999056288
 H          3.7635584296       -2.3243787531       -0.1539891129
 C          2.2252855034       -3.5648427729       -1.0155871501
 H          2.2078849851       -4.5941663177       -0.6574622428
 H          2.9211904582       -3.5415198505       -1.8567912269
 C          0.8448455645       -3.1935806506       -1.5758212166
 H          0.3941583792       -4.0856252423       -2.0246743270
 H          0.9646972221       -2.4678912268       -2.3867170291
 H          1.6177251065       -3.9510437094        3.1338840757
 H          1.2027745812       -2.3618943781        2.4884679354
 H         -0.4112772950       -4.4022229454        2.1168748950
 H          0.6652070346       -4.7977667289        0.7669040408
 O         -1.3441370062       -2.3426242029        1.3947925664
 C         -2.1079623196       -1.2883950332        0.9296674993
 O         -2.9041143559       -0.8209312581        1.7673299456
 O         -0.7380244503       -1.0723026611       -2.4079248345
 C         -2.7314284322        0.3072403103       -0.9040880854
 C         -2.3656425734        1.5020602605       -0.0574173335
 C         -3.2823192413        2.3156549306        0.5927527437
 C         -2.8412470385        3.3241983680        1.4337005919
 C         -1.4925474725        3.5188054331        1.6670047063
 C         -0.5661301737        2.7186800091        1.0052936514
 C         -1.0109068383        1.7571305153        0.1165143807
 H         -0.2920164303        1.1467116886       -0.4058381305
 N          0.8112296158        2.8670748886        1.2196996940
 S          1.8456575427        1.5441853225        1.1767904006
 O          1.1534420034        0.2968992118        1.3919374312
 O          2.8820121215        1.8728609044        2.1346666143
 C          2.5497997294        1.6354163722       -0.4571438032
 C          2.1873791377        0.7434101763       -1.4448017671
 C          2.7567303027        0.8651000879       -2.7030569538
 C          3.6745691085        1.8725768507       -2.9528429380
 C          4.0314910907        2.7618218891       -1.9497445482
 C          3.4654348025        2.6441930592       -0.6915422684
 H          3.7238253504        3.3041846330        0.1196707339
 H          4.7472990479        3.5438553065       -2.1453111115
 H          4.1141661880        1.9627320682       -3.9336332448
 H          2.4687221650        0.1719597576       -3.4774247942
 H          1.4674409641       -0.0316212748       -1.2333716395
 H          1.0571954512        3.5052668314        1.9619087239
 H         -1.1558357345        4.2752507337        2.3596659184
 H         -3.5618504463        3.9488420362        1.9398819540
 H         -4.3388724828        2.1497540628        0.4606381560
 H         -2.3785712947        0.4817653636       -1.9311019957
 C         -4.2134477689        0.0066320975       -0.9353657174
 C         -5.1093553940        0.7435545152       -1.8845915395
 C         -4.7875609569       -0.6997951151       -2.1255592492
 H         -5.5599215927       -1.4365478179       -1.9633914846
 H         -4.1102530343       -0.9475887839       -2.9296552325
 H         -6.1069753837        0.9975878263       -1.5597663024
 H         -4.6544448944        1.4786916166       -2.5308664033
 H         -4.6044221734       -0.2581667395        0.0405426501
