  62
        -98.94073691
 C         -2.5357794795       -0.3125064084        0.1859411958
 C         -2.5313891264        0.7955343811        1.0691721817
 C         -2.4034658171        2.1218767506        0.4539221932
 C         -2.2846501881        2.2161986240       -0.8823736264
 C         -2.1312086017        3.5005526617       -1.6437835475
 C         -0.6551758832        3.8543311916       -1.8665962874
 C          0.2018317573        3.7862394227       -0.6021115299
 H          0.2961545539        2.7444152683       -0.2848582607
 H          1.2058725672        4.1190269054       -0.8759397163
 C         -0.3127449794        4.6388269556        0.5660436049
 H         -0.9973867570        5.4028266580        0.1947901311
 H          0.5370144221        5.1548735480        1.0181042109
 C         -0.9939255695        3.8477158660        1.6847949364
 H         -0.3601836590        3.0026451402        1.9698830329
 H         -1.0825734505        4.5000439141        2.5581422686
 C         -2.3970497584        3.3136951425        1.3684826575
 H         -2.8447423791        2.9742832992        2.3073225245
 H         -3.0150864011        4.1177736304        0.9631308556
 H         -0.6043718888        4.8601490949       -2.2888350026
 H         -0.2373298218        3.1551430830       -2.5943357497
 H         -2.6156712567        3.3807088209       -2.6146739362
 H         -2.6285780542        4.2992941471       -1.0965892275
 O         -2.2677587575        1.1328275230       -1.6978412829
 C         -2.3447840071       -0.1562094611       -1.1880768509
 O         -2.2456641619       -1.0442188465       -2.0554352155
 H         -0.0749996954       -0.9100176728        0.7083029419
 C         -0.1672498402       -1.9151733266        0.3220175157
 C         -1.4206281198       -2.5153878580        0.2877718809
 C         -1.5204450474       -3.8121482392       -0.1951331771
 C         -0.3893844278       -4.4787854676       -0.6377047716
 C          0.8503218616       -3.8691601496       -0.6230583908
 C          0.9581581534       -2.5628632868       -0.1527804876
 N          2.1901177032       -1.8897704840       -0.1955784640
 S          2.3961243762       -0.3860250621        0.5186062780
 O          2.2141880064       -0.4685206982        1.9532863979
 O          1.5850683508        0.5799352516       -0.1774103293
 C          4.1177747388       -0.1147531705        0.1457229670
 C          5.0778925984       -0.4399586776        1.0851396710
 C          6.4147088723       -0.2512520512        0.7711076230
 C          6.7670140130        0.2545219887       -0.4711123557
 C          5.7921775511        0.5783787382       -1.4032172292
 C          4.4539181627        0.3925408539       -1.0949132271
 H          3.6600790998        0.6371266814       -1.7817869505
 H          6.0688603259        0.9748381685       -2.3668127031
 H          7.8077390128        0.4006166254       -0.7134529493
 H          7.1744483540       -0.4982925216        1.4949467392
 H          4.7560202407       -0.8196641656        2.0414962632
 H          2.9985797909       -2.4880296612       -0.1120159473
 H          1.7254842436       -4.3863615128       -0.9844125820
 H         -0.4787016209       -5.4884998441       -1.0091072815
 H         -2.4817593748       -4.2968312709       -0.2415514425
 C         -2.5839389495       -1.7011581740        0.7991116614
 H         -2.4116295306       -1.5224481571        1.8754001683
 C         -3.9260818367       -2.4087812156        0.6922033929
 C         -5.1899926320       -1.6420224913        0.4446385035
 C         -4.6539387824       -2.5622616932       -0.6084931461
 H         -5.1801348956       -3.4875252808       -0.7929596617
 H         -4.1982364868       -2.1319627946       -1.4857478865
 H         -6.0798023402       -1.9324394793        0.9830062247
 H         -5.1039481077       -0.5769543463        0.2828301165
 H         -4.0023545922       -3.2370518136        1.3903513580
 O         -2.6313337574        0.6783790707        2.3221385662
