  62
        -98.93071090
 C          2.2550790539       -0.6048146926       -0.1817537850
 C          3.5257576117       -0.8963465284       -0.7386431908
 C          4.7031656687       -0.5249682276        0.0628979389
 C          4.5245796665        0.0833912900        1.2475915067
 C          5.5658689997        0.5126445018        2.2508993010
 C          6.8354973646        1.1850344538        1.7112165466
 C          6.6309336615        2.0424693952        0.4537793676
 H          5.5650975247        2.1899248684        0.2708678628
 H          7.0718315454        3.0270991728        0.6200608738
 C          7.2843511071        1.4400135243       -0.7923455369
 H          7.4272316436        2.2317850368       -1.5316644165
 H          8.2731944198        1.0633917364       -0.5218591052
 C          6.4935418922        0.3235377843       -1.4731249981
 H          7.1156286137       -0.0925948922       -2.2691782021
 H          5.6008940555        0.7381944114       -1.9492180031
 C          6.0396843790       -0.8225302488       -0.5542769629
 H          6.7904717587       -1.0439534724        0.2003701996
 H          5.8948565507       -1.7117175545       -1.1739198652
 H          7.5898461437        0.4271093543        1.5049195423
 H          7.2282701688        1.8077384184        2.5167709719
 H          5.0448311010        1.1990467194        2.9226613870
 H          5.8483089063       -0.3634250313        2.8420576265
 O          3.2851507351        0.3800562610        1.7293399795
 C          2.1242169872        0.0595045402        1.0375299981
 O          1.0828339289        0.4230631561        1.6142721370
 O          3.6719633908       -1.4505891252       -1.8604868906
 C          1.0299189433       -0.9904064469       -0.9900070683
 C          0.0463796651        0.1504741467       -1.0439647872
 C          0.4155894932        1.3242289464       -1.6969671043
 C         -0.4537308396        2.3945131666       -1.7732715291
 C         -1.7178754571        2.3113943903       -1.2161433830
 C         -2.0925361801        1.1483973306       -0.5550509587
 C         -1.2121991310        0.0786439038       -0.4707332265
 H         -1.5234197469       -0.8017984739        0.0661273065
 N         -3.3564657625        1.0395021188        0.0457148955
 S         -4.1292403924       -0.4599617550        0.0128387532
 O         -3.6978275060       -1.2449614929        1.1416959179
 O         -3.9654567061       -1.0701862119       -1.2880505440
 C         -5.8245809712        0.0442183185        0.2465744670
 C         -6.2779966740        0.2796786950        1.5308928887
 C         -7.5852616853        0.7021838588        1.7127224437
 C         -8.4127008031        0.8818437584        0.6140653828
 C         -7.9444486888        0.6393731993       -0.6685602055
 C         -6.6375899031        0.2180959797       -0.8576925828
 H         -6.2328716013        0.0087191309       -1.8348315793
 H         -8.5912096782        0.7762640623       -1.5201631036
 H         -9.4298923306        1.2097978047        0.7588883367
 H         -7.9534929059        0.8885363246        2.7086741262
 H         -5.6014242368        0.1173831223        2.3538359664
 H         -3.9810429065        1.7940484065       -0.2029395217
 H         -2.4018972653        3.1440729942       -1.2806407943
 H         -0.1506353108        3.2986093637       -2.2799329249
 H          1.4010193282        1.3860485839       -2.1394275008
 H          1.4154109887       -1.1511190432       -2.0115697192
 C          0.3883738831       -2.3014165525       -0.5614456977
 C          1.2096176685       -3.4198303552        0.0042916828
 C          0.2346429666       -2.6905745279        0.8769221352
 H         -0.6755814280       -3.1921746342        1.1737114076
 H          0.6145882260       -2.0102503667        1.6231566769
 H          0.9778626780       -4.4303308037       -0.2967814168
 H          2.2635949026       -3.2375706078        0.1559786602
 H         -0.4227398419       -2.5876664195       -1.2260598912
