  62
        -98.93832987
 C         -2.2448221063       -0.9990131620        0.4081605268
 C         -2.4639828615       -0.1316075930       -0.6868222128
 C         -3.3393517158        1.0296875027       -0.4392506725
 C         -3.8655379637        1.2137540883        0.7860108972
 C         -4.7516500175        2.3119053345        1.3369871336
 C         -5.4628864496        3.2860796438        0.4014197297
 C         -6.5563411356        2.6594988089       -0.4631892113
 H         -6.9219811453        3.4209771604       -1.1554797151
 H         -7.3883892226        2.3717552794        0.1844275085
 C         -6.1424625027        1.4231412346       -1.2574725285
 H         -7.0148503448        1.0810435776       -1.8208512905
 H         -5.8692481525        0.6197755384       -0.5702075420
 C         -5.0020659479        1.6355082185       -2.2511423884
 H         -5.2473734477        2.4615248900       -2.9213587692
 H         -4.9187723450        0.7279206285       -2.8548154825
 C         -3.6212730852        1.9032593585       -1.6275849052
 H         -3.4994106658        2.9528627040       -1.3708521780
 H         -2.8597283853        1.6571411011       -2.3734421123
 H         -4.7402127808        3.8096648042       -0.2173934802
 H         -5.9368769401        4.0377425728        1.0386504286
 H         -4.1191611661        2.8884589790        2.0214145527
 H         -5.4963868467        1.8069843766        1.9605864814
 O         -3.5969670022        0.3623754278        1.8212992780
 C         -2.7943686262       -0.7534960583        1.6635456933
 O         -2.6435002158       -1.4309636640        2.7017615871
 O         -1.9481374699       -0.3086876412       -1.8203025780
 C         -1.3699915631       -2.2263873503        0.2395818374
 C          0.0207851683       -1.8352454210       -0.2008415730
 C          0.7469438131       -2.5544957882       -1.1412039369
 C          2.0296888477       -2.1643670765       -1.4855653524
 C          2.6153449380       -1.0547368020       -0.9051906549
 C          1.9029181704       -0.3341911001        0.0445680805
 C          0.6224982227       -0.7333970009        0.3943555286
 H          0.0723286827       -0.1727465386        1.1414935988
 N          2.4864097967        0.8036563445        0.6334133751
 S          3.9809819935        0.6107371765        1.3774424831
 O          4.1430637436       -0.7280866326        1.8965993957
 O          4.0660255206        1.6874323574        2.3403325670
 C          5.1541999276        0.9048739443        0.0712317052
 C          6.1240756943       -0.0384048886       -0.2064741887
 C          7.0350953959        0.2162467042       -1.2199236139
 C          6.9602105678        1.4028150511       -1.9331571336
 C          5.9810629743        2.3406701321       -1.6401974875
 C          5.0684927713        2.0934507859       -0.6271188152
 H          4.2945144584        2.7960222831       -0.3664860093
 H          5.9254691352        3.2618811415       -2.1975539827
 H          7.6689368333        1.5982060765       -2.7223625431
 H          7.7971024085       -0.5112463454       -1.4489819409
 H          6.1381305165       -0.9494174062        0.3701312076
 H          1.8578908834        1.3062542329        1.2436669540
 H          3.6101095258       -0.7424590488       -1.1779845867
 H          2.5795066966       -2.7307171849       -2.2215329096
 H          0.3071291929       -3.4210857849       -1.6068069891
 H         -1.2897041912       -2.6815663281        1.2386273163
 C         -2.0397875826       -3.2149354728       -0.6934947300
 C         -1.8438792812       -4.6886085316       -0.5070592782
 C         -3.1593981930       -4.0583071431       -0.1645432021
 H         -4.0082769850       -4.2502508738       -0.8034383605
 H         -3.4165846036       -3.9405775764        0.8785708545
 H         -1.7928335259       -5.3173698566       -1.3831986358
 H         -1.2112912497       -5.0109483361        0.3063536739
 H         -2.1351449242       -2.8318255227       -1.7028956672
