  62
        -98.93913373
 C          1.9108341918        1.0413486903       -0.2270874758
 C          3.0195434326        1.1038432163        0.6562416823
 C          4.2650595193        0.4476372155        0.2251892997
 C          4.2979515507       -0.1816025826       -0.9639681854
 C          5.4198740734       -0.8982512247       -1.6857770384
 C          6.7066722380       -1.2690771896       -0.9536008655
 C          6.5438502950       -2.3464486131        0.1183489787
 H          6.3287808598       -3.2974981479       -0.3755801926
 H          7.4954615216       -2.4529062933        0.6436022650
 C          5.4370648726       -2.0994114835        1.1405731460
 H          5.4250559675       -2.9470995718        1.8312042443
 H          4.4680980417       -2.0838624412        0.6369526112
 C          5.5855591203       -0.8263588104        1.9712854665
 H          6.5636786619       -0.8160276676        2.4561278308
 H          4.8237150561       -0.8549264336        2.7550498935
 C          5.4064505088        0.4922729148        1.1998188599
 H          5.1607975937        1.2751578151        1.9232156941
 H          6.3266907827        0.7863461415        0.7007586844
 H          7.1708132549       -0.3808899185       -0.5351777882
 H          7.3939024416       -1.6584094990       -1.7097568154
 H          5.6783236214       -0.2601265876       -2.5381483918
 H          4.9729595870       -1.8050583737       -2.1059530169
 O          3.2076112276       -0.2157142809       -1.7821641062
 C          1.9999120800        0.3743870250       -1.4469926031
 O          1.1210642218        0.2228276357       -2.3205957843
 O          2.9747267386        1.7021919746        1.7639049271
 C          0.6369390050        1.7330629297        0.2286406370
 C         -0.3634442219        0.7459629795        0.7810649802
 C         -0.7474920950        0.7910728550        2.1159870617
 C         -1.6797159783       -0.1033853152        2.6134940475
 C         -2.2488776542       -1.0575027580        1.7899778098
 C         -1.8685430984       -1.1116367845        0.4548537290
 C         -0.9391877874       -0.2107223295       -0.0432925260
 H         -0.6415122214       -0.2644037059       -1.0798949394
 N         -2.4526396633       -2.0714618350       -0.3935256580
 S         -4.1273426120       -2.1231909423       -0.4032738592
 O         -4.5889566193       -2.9046445768        0.7172967615
 O         -4.4948201367       -2.6190027030       -1.7109167161
 C         -4.6319934805       -0.4234181099       -0.2037182040
 C         -4.2790610615        0.4762247531       -1.1901072707
 C         -4.6106206532        1.8111270943       -1.0286639505
 C         -5.2819055495        2.2227972125        0.1125009663
 C         -5.6326022765        1.3065919727        1.0915126935
 C         -5.3033403657       -0.0304587196        0.9358328074
 H         -5.5535232041       -0.7754632324        1.6732598593
 H         -6.1563094439        1.6294311968        1.9767348935
 H         -5.5327363554        3.2642758074        0.2373845227
 H         -4.3400866049        2.5240175019       -1.7910023321
 H         -3.7585063370        0.1241386462       -2.0666196570
 H         -2.0870532434       -2.0437515521       -1.3345882584
 H         -2.9752586286       -1.7643224645        2.1574175360
 H         -1.9662189471       -0.0574599737        3.6529075531
 H         -0.2993588412        1.5263515086        2.7680631349
 H          0.9493495146        2.3868261901        1.0536703474
 C          0.0013571795        2.5905165025       -0.8493379356
 C         -0.9650567465        3.6621609257       -0.4468480003
 C          0.3917056326        4.0320561773       -0.9650787693
 H          0.4705437597        4.4659631835       -1.9506490414
 H          1.1215578166        4.4100970177       -0.2640563151
 H         -1.8221555562        3.8441966066       -1.0760346723
 H         -1.1577432749        3.7902741253        0.6072250099
 H         -0.1924695720        2.0538080634       -1.7686609925
