  62
        -98.94298210
 C          2.6821249953        1.2028439645        0.1399013705
 C          2.6971476533        0.2165823849       -0.8753116034
 C          3.8856514246       -0.6481508505       -0.9066309907
 C          4.8710781418       -0.4489398384       -0.0123632577
 C          6.1071051637       -1.2921413516        0.1036622521
 C          5.8986474976       -2.4479315267        1.0924318672
 C          4.6139490232       -3.2415145956        0.8536753531
 H          4.5884092599       -4.0474536837        1.5903238181
 H          3.7539921649       -2.5976824583        1.0524568313
 C          4.4863195776       -3.8337196184       -0.5567880112
 H          5.4644452726       -3.8567299657       -1.0386409567
 H          4.1420338256       -4.8665980217       -0.4726986845
 C          3.4919294466       -3.1054059697       -1.4630074572
 H          3.3182126095       -3.7268956591       -2.3454735227
 H          2.5351242271       -2.9965093035       -0.9458494930
 C          3.9309164193       -1.7213722132       -1.9575199745
 H          4.9266438527       -1.7866929333       -2.4007296706
 H          3.2276631352       -1.4081356868       -2.7346879623
 H          6.7589343477       -3.1166284267        1.0280080518
 H          5.8634728669       -2.0359677462        2.1036775075
 H          6.3682126412       -1.6822765914       -0.8780568565
 H          6.9218650128       -0.6610628885        0.4625907802
 O          4.8296401756        0.5249609138        0.9331482427
 C          3.7325272867        1.3629036342        1.0432025522
 O          3.8093025326        2.1951620402        1.9699335719
 O          1.7700265658        0.0649674805       -1.7127681403
 C          1.4885624532        2.1319408872        0.2734433832
 C          0.2368336108        1.3198925168        0.5029105194
 C          0.2154000325        0.4149510194        1.5616067917
 C         -0.9048253328       -0.3520711689        1.8143040454
 C         -2.0306137833       -0.2364874257        1.0167585140
 C         -2.0251918734        0.6698471754       -0.0333409974
 C         -0.8982016408        1.4457275060       -0.2806600474
 H         -0.9109642420        2.1435696850       -1.1032741515
 N         -3.1579625006        0.7862788194       -0.8531068476
 S         -4.6757302623        0.8887141298       -0.1510563504
 O         -5.5001808719        1.5543881153       -1.1359434809
 O         -4.6150726880        1.5029343935        1.1549543349
 C         -5.2029410985       -0.8058855827       -0.0058585314
 C         -5.6491986868       -1.2845564531        1.2103051305
 C         -6.0714735959       -2.6020031286        1.2983296328
 C         -6.0411668426       -3.4127077693        0.1741093781
 C         -5.5920672113       -2.9160711698       -1.0405969782
 C         -5.1697190861       -1.5997716268       -1.1354990679
 H         -4.8160718179       -1.1769906430       -2.0610559210
 H         -5.5690381980       -3.5498952624       -1.9124847169
 H         -6.3693966833       -4.4377214986        0.2447679000
 H         -6.4212275187       -2.9897867818        2.2416370880
 H         -5.6501220303       -0.6193228748        2.0591821331
 H         -3.0553204939        1.4452155198       -1.6107631781
 H         -2.9064657318       -0.8354528656        1.2053715954
 H         -0.9028290827       -1.0504914013        2.6375941456
 H          1.0959217271        0.3226637428        2.1837334898
 H          1.6708398252        2.7338006105        1.1757055280
 C          1.4121965055        3.0595586520       -0.9209188043
 C          0.7408589917        4.3934761239       -0.7957527232
 C          2.2324928649        4.3128437571       -0.9163898827
 H          2.6939810389        4.6307570298       -1.8392434715
 H          2.8306720550        4.5106684778       -0.0387537323
 H          0.1798425367        4.7722556431       -1.6371591798
 H          0.3225745791        4.6545616038        0.1648616296
 H          1.3233010085        2.5255616001       -1.8601214168
