  62
        -98.94642670
 C         -1.1886219393       -1.2485821895        0.0478543398
 C         -1.5877862595       -0.2773762795        0.9991421298
 C         -2.4444055595        0.8008185204        0.4964562996
 C         -2.7374835393        0.8599332904       -0.8150993804
 C         -3.6117564492        1.8871576304       -1.4823150906
 C         -5.1107046292        1.5656917103       -1.4020907009
 C         -5.7448115694        1.7738645903       -0.0260157810
 H         -5.5025312296        2.7729698003        0.3375964690
 H         -6.8271940294        1.7316541002       -0.1630430712
 C         -5.3411054796        0.7297373303        1.0244486191
 H         -4.9190051295       -0.1454589597        0.5251992692
 H         -6.2305858797        0.3923993003        1.5614408089
 C         -4.3452281398        1.2308208504        2.0709061393
 H         -4.8065312800        2.0220081103        2.6661020392
 H         -4.1090459599        0.4004833904        2.7413313293
 C         -3.0277551797        1.7605884604        1.4886082195
 H         -3.1866453997        2.7352153704        1.0284816395
 H         -2.3107773699        1.8709396005        2.3055651696
 H         -5.6226593091        2.2156514503       -2.1154826910
 H         -5.2662752691        0.5332757103       -1.7233319509
 H         -3.3206994390        1.9110616804       -2.5346044006
 H         -3.4342583793        2.8702789404       -1.0455627306
 O         -2.2401945691       -0.0275255596       -1.7145808604
 C         -1.4675825691       -1.1082773595       -1.3120906102
 O         -1.1018846089       -1.8429258395       -2.2478590501
 O         -1.2503562998       -0.3169094195        2.2131227198
 C         -0.3768042394       -2.4375958695        0.5376900800
 C          1.0605222907       -2.2313560294        0.1322876903
 C          1.6644653509       -2.8912204794       -0.9294374996
 C          2.9724266310       -2.6006521593       -1.2807643994
 C          3.7038806808       -1.6572982693       -0.5816083093
 C          3.1062805506       -0.9928562493        0.4818305706
 C          1.7966771205       -1.2804947594        0.8303690304
 H          1.3258240604       -0.7530445694        1.6503003003
 N          3.8419218304       -0.0111951293        1.1879104508
 S          4.1308677605        1.4015275107        0.3367402508
 O          4.9289064107        1.0886924808       -0.8200418690
 O          4.7084506203        2.3242557808        1.2863823309
 C          2.5177853206        1.9742363607       -0.1654187095
 C          1.9175740508        1.4012255106       -1.2690052796
 C          0.6445656308        1.8143661606       -1.6265741298
 C         -0.0010538793        2.7869528305       -0.8792246700
 C          0.6106059604        3.3446420406        0.2324511802
 C          1.8806470604        2.9310788906        0.5988042804
 H          2.3959592702        3.3418014707        1.4523394805
 H          0.1006312703        4.0963777405        0.8129713401
 H         -0.9871306793        3.1111682905       -1.1693447101
 H          0.1585657810        1.3679344805       -2.4802867299
 H          2.4494411209        0.6528788206       -1.8341579595
 H          3.4193674202        0.2283261907        2.0749084107
 H          4.7164516808       -1.4087431793       -0.8545925191
 H          3.4284597012       -3.1170235693       -2.1119133593
 H          1.1046450511       -3.6185152294       -1.4936060997
 H         -0.4234672096       -2.3845741595        1.6344528500
 C         -0.9616947292       -3.7596857795        0.0913257899
 C         -0.5347992993       -5.0188127995        0.7827889500
 C         -1.9160841794       -4.4784634095        0.9954056497
 H         -2.7497381593       -5.0022984596        0.5522471196
 H         -2.1452129896       -4.0222066295        1.9475151597
 H         -0.4185816291       -5.9164696995        0.1952017700
 H          0.1757206706       -4.9272504894        1.5904216001
 H         -1.1592610390       -3.8061480695       -0.9721951101
