  62
        -98.94106665
 C         -2.5997530486       -1.3215698559        0.2356869865
 C         -2.3956530068       -0.2383882905       -0.6568746602
 C         -3.4971173326        0.7331127079       -0.7427845432
 C         -4.6213277820        0.5479415539       -0.0295422632
 C         -5.8374672666        1.4335046273       -0.0390415775
 C         -5.7369460280        2.6390908786        0.9053739863
 C         -4.7832678001        3.7443252976        0.4498057413
 H         -5.0235523288        4.0315762276       -0.5743047962
 H         -4.9721436986        4.6123991873        1.0844060802
 C         -3.2954346591        3.3777385118        0.5470940428
 H         -3.1738420171        2.5115638449        1.2018339543
 H         -2.7448769258        4.2024481319        1.0052455803
 C         -2.6259999017        3.0797479730       -0.7948614333
 H         -1.5862092870        2.7971890928       -0.6059121378
 H         -2.6203866278        3.9825501252       -1.4100987633
 C         -3.2882396108        1.9492861851       -1.5935814734
 H         -4.2349428226        2.2895107401       -2.0131380083
 H         -2.6196503288        1.6737991658       -2.4131539623
 H         -6.7380047031        3.0669635422        0.9951118044
 H         -5.4368819012        2.2842623809        1.8939915233
 H         -6.0309926309        1.7800479095       -1.0545421511
 H         -6.6762409315        0.8127861762        0.2833515116
 O         -4.7884304679       -0.5163067157        0.7992028455
 C         -3.7772627360       -1.4446522816        0.9811204357
 O         -4.0459708923       -2.3278229534        1.8196115460
 O         -1.3670160765       -0.0751297043       -1.3630544175
 C         -1.5368623624       -2.3765528802        0.5021103394
 C         -0.2188806908       -1.6990275425        0.7801162198
 C          0.0098424203       -1.1398349742        2.0335113012
 C          1.1872496702       -0.4666311220        2.3005104902
 C          2.1534713916       -0.3251036328        1.3196554823
 C          1.9237087745       -0.8599153050        0.0595201649
 C          0.7527669228       -1.5615110298       -0.1972641014
 H          0.5779158590       -1.9634800046       -1.1829467419
 N          2.8890349872       -0.7110329511       -0.9491760791
 S          3.6638824729        0.7650858443       -1.1299568917
 O          2.8465026884        1.8740167570       -0.6966111011
 O          4.1057350901        0.7897233452       -2.5077619675
 C          5.0929226194        0.6112148269       -0.0757500576
 C          5.3834178927        1.6017286643        0.8416691761
 C          6.5090198082        1.4682435370        1.6399573975
 C          7.3211399533        0.3527107873        1.5065710955
 C          7.0173155621       -0.6323709009        0.5786677736
 C          5.8943333995       -0.5041111785       -0.2227748833
 H          5.6254835991       -1.2450753435       -0.9568284558
 H          7.6511608835       -1.4986193415        0.4777824120
 H          8.1960015818        0.2506948738        2.1291006178
 H          6.7465807535        2.2336457548        2.3612782227
 H          4.7204875575        2.4494856809        0.9143270997
 H          2.5910437117       -1.0697583278       -1.8449657198
 H          3.0657647863        0.2142825101        1.5154221142
 H          1.3536604730       -0.0418873171        3.2789323395
 H         -0.7539650640       -1.2313568000        2.7939332829
 H         -1.8632304830       -2.8766778355        1.4277141161
 C         -1.4341492083       -3.4610878505       -0.5601786638
 C         -2.6738329559       -4.0320525791       -1.1798589721
 C         -1.7241345250       -3.2248161267       -2.0104951375
 H         -1.1182958499       -3.7422115339       -2.7406527921
 H         -2.0184176923       -2.2330395119       -2.3149966535
 H         -2.7264625706       -5.0978344325       -1.3429833502
 H         -3.6170962301       -3.5843578929       -0.9017769233
 H         -0.6392776568       -4.1656816132       -0.3341721788
