  62
        -98.93677215
 C         -1.7677602049       -0.9132745770        0.1909260812
 C         -3.1204085263       -1.2216156430        0.4733544499
 C         -4.0739161935       -0.0960937038        0.5258043728
 C         -3.6061065656        1.1537428636        0.3520821559
 C         -4.3791024777        2.4454413244        0.3249910306
 C         -5.1467121674        2.6488205323       -0.9909132118
 C         -5.8919236543        1.4164505358       -1.4965258418
 H         -6.3048272125        1.6582654216       -2.4794910141
 H         -5.1811312767        0.6000111367       -1.6376410455
 C         -7.0416967514        0.9419368090       -0.6109097759
 H         -7.7650495075        1.7525951518       -0.4984376658
 H         -7.5398860476        0.1240446721       -1.1378711399
 C         -6.6522198377        0.4404810714        0.7815668664
 H         -6.4528115626        1.2685995410        1.4564007265
 H         -7.5174921853       -0.0901532466        1.1894837341
 C         -5.4886389509       -0.5456949711        0.8007530405
 H         -5.4567750902       -1.0291954560        1.7846921974
 H         -5.6930445479       -1.3558605761        0.0911587011
 H         -5.8500671496        3.4722893349       -0.8562700967
 H         -4.4277759313        2.9413729127       -1.7602299284
 H         -5.0507811094        2.4970905122        1.1767166583
 H         -3.6477800618        3.2500308431        0.4283226997
 O         -2.2854615442        1.4083312832        0.1315393615
 C         -1.3364414145        0.4042148156        0.0441258951
 O         -0.1796285891        0.8194304556       -0.1516107439
 O         -3.5261368612       -2.3977894184        0.6760338969
 C         -0.7815866502       -2.0632441851        0.1091868784
 C          0.4678607659       -1.7484368046        0.8929914922
 C          0.3541414851       -1.5157571452        2.2620519878
 C          1.4677191329       -1.2300662147        3.0265252470
 C          2.7216690909       -1.1743196650        2.4427947228
 C          2.8483796644       -1.4094694943        1.0796738902
 C          1.7257019702       -1.6977765288        0.3134418663
 H          1.8525441809       -1.8494981380       -0.7449079528
 N          4.1170398633       -1.4038102026        0.4715923259
 S          4.4450904824       -0.4682868168       -0.8758702688
 O          3.5324297426       -0.7945593128       -1.9395989546
 O          5.8477380970       -0.7040451712       -1.1443144033
 C          4.2315693602        1.2182004284       -0.3336251759
 C          2.9582632737        1.7102149891       -0.1287565123
 C          2.8169083817        3.0058796704        0.3455672948
 C          3.9364493042        3.7808897220        0.6043839007
 C          5.2082480148        3.2693562205        0.3930045784
 C          5.3591306874        1.9748155680       -0.0756295086
 H          6.3268685205        1.5353121075       -0.2562689789
 H          6.0787356504        3.8731176260        0.5935372522
 H          3.8160134992        4.7879703366        0.9718720664
 H          1.8226566165        3.3909417330        0.5081119627
 H          2.0925544450        1.1002441218       -0.3323587210
 H          4.8804680425       -1.3137868507        1.1275425094
 H          3.5948322383       -0.9533862321        3.0380262547
 H          1.3612794767       -1.0474394828        4.0852366515
 H         -0.6264551280       -1.5569723944        2.7172032801
 H         -1.2941065892       -2.8994492905        0.6148867384
 C         -0.4920986748       -2.5284527441       -1.3100572428
 C         -1.5040242876       -2.3727010591       -2.4044669233
 C         -0.2412938614       -1.5675495409       -2.4316199541
 H          0.5207732469       -1.8127171677       -3.1573354876
 H         -0.2957331910       -0.5135185588       -2.2085627176
 H         -1.6196592248       -3.1777421459       -3.1145121298
 H         -2.4272554095       -1.8648422996       -2.1656179101
 H          0.0867831195       -3.4474645497       -1.3236974398
