  62
        -98.93529515
 C          1.9639636992        1.0153262249       -0.2323609647
 C          2.5685021287        0.3425537507        0.8578323888
 C          2.9037637544       -1.0817883381        0.6837508084
 C          2.5885352269       -1.6761296382       -0.4814672497
 C          2.8558804742       -3.0968813975       -0.9016521096
 C          4.3263927898       -3.3346012182       -1.2871429432
 C          5.3502294257       -2.6727835369       -0.3677814836
 H          6.3359985335       -2.8011514349       -0.8224633413
 H          5.1503546705       -1.6005679176       -0.3240848517
 C          5.4135492953       -3.2360793297        1.0497394404
 H          6.2197442145       -2.7143416049        1.5715234697
 H          5.6782839489       -4.2947544001        1.0018730675
 C          4.1382749439       -3.0952422747        1.8821314126
 H          4.3955845651       -3.3423169861        2.9163506546
 H          3.3873881696       -3.8159037897        1.5697710558
 C          3.5418006347       -1.6910209299        1.9091621915
 H          2.7719845904       -1.6544790549        2.6899283076
 H          4.3117659771       -0.9800145027        2.2296329408
 H          4.4772682365       -2.9348410998       -2.2927733658
 H          4.5048412141       -4.4105431376       -1.3210810877
 H          2.2292887953       -3.2873788556       -1.7759893925
 H          2.5409333168       -3.7786234741       -0.1168751847
 O          1.9946144861       -0.9976046608       -1.5021669167
 C          1.6543011784        0.3416531283       -1.4136954763
 O          1.1118051411        0.7834946307       -2.4466368492
 O          2.8383343214        0.9206189584        1.9471080106
 C          1.6054394008        2.4722115095       -0.0019808981
 C          0.2226571689        2.5870410871        0.5977499765
 C         -0.0111704790        3.4141671868        1.6903930024
 C         -1.2719991059        3.4989661042        2.2529057018
 C         -2.3158223432        2.7427396622        1.7522688976
 C         -2.0930676659        1.9165290970        0.6561986899
 C         -0.8358446004        1.8600929661        0.0732561181
 H         -0.6861129876        1.2184628371       -0.7824098282
 N         -3.1280414688        1.1344393705        0.1197717145
 S         -2.7375438121       -0.4184477455       -0.4257141969
 O         -1.7238663345       -1.0011027527        0.4251065181
 O         -2.4501318373       -0.3582582267       -1.8362072444
 C         -4.3000407405       -1.2442408805       -0.1760358311
 C         -4.5129476165       -1.9471852753        0.9947512198
 C         -5.7425195472       -2.5538566033        1.1987326687
 C         -6.7343340365       -2.4445364795        0.2355960257
 C         -6.5058482606       -1.7361872311       -0.9348582052
 C         -5.2783692911       -1.1281358003       -1.1455458419
 H         -5.0498343679       -0.5749881402       -2.0416761390
 H         -7.2778329904       -1.6556150008       -1.6829020774
 H         -7.6902795570       -2.9170156216        0.3969481568
 H         -5.9211713887       -3.1079385948        2.1060824638
 H         -3.7087774098       -2.0111155509        1.7102996402
 H         -3.9596803174        1.1312654615        0.6949255560
 H         -3.2950498862        2.7880510136        2.2040850610
 H         -1.4392168729        4.1438793707        3.1020266264
 H          0.8088710668        3.9767464835        2.1109135911
 H          2.3208467964        2.8341118596        0.7504814995
 C          1.7154826532        3.3530836232       -1.2302399554
 C          1.9636384838        4.8207931768       -1.0584375022
 C          3.0442219723        3.9363922604       -1.6024874098
 H          3.2975873947        4.0058453752       -2.6494301200
 H          3.8852486790        3.7068694490       -0.9643990921
 H          1.4716167140        5.5053386069       -1.7318636055
 H          2.0778804494        5.1968290117       -0.0533387953
 H          1.0653627793        3.0413809658       -2.0374879035
