  62
        -98.93434131
 C          2.1628441791        0.8292482337        0.2097793182
 C          3.0182723259        0.1125166871        1.0802198652
 C          3.9005124506       -0.9050247705        0.4766029136
 C          3.8013542667       -1.1409132318       -0.8447303885
 C          4.6152332987       -2.0865841257       -1.6871694796
 C          6.0277543903       -1.5536122270       -1.9776513772
 C          6.7427210984       -0.9368912762       -0.7781863571
 H          7.6790933006       -0.5020738855       -1.1375796129
 H          6.1382676203       -0.1190184284       -0.3815720068
 C          7.0822387756       -1.9094702990        0.3487936823
 H          7.6629054164       -1.3558640293        1.0911604587
 H          7.7191325993       -2.7050532970       -0.0442557777
 C          5.8895562160       -2.5500702773        1.0619132398
 H          5.4600031097       -3.3512966735        0.4665228204
 H          6.2683526525       -3.0134335379        1.9776907208
 C          4.8013669868       -1.5701186891        1.4894795762
 H          4.1292483497       -2.0797161665        2.1910279922
 H          5.2568405964       -0.7586944536        2.0688849825
 H          6.6279921139       -2.3706690520       -2.3812696122
 H          5.9454998830       -0.7826838218       -2.7476741898
 H          4.0838452908       -2.1976838521       -2.6349383246
 H          4.6588909135       -3.0640178930       -1.2157902636
 O          2.9113259886       -0.4758734200       -1.6339367948
 C          2.0738181697        0.5140903022       -1.1465341934
 O          1.3195896651        1.0063920041       -2.0047613322
 O          3.0515592505        0.3126271069        2.3254791824
 C          1.2725514792        1.8984426931        0.8154533931
 C         -0.1525206918        1.7208717372        0.3538058330
 C         -0.8874007190        2.7104900853       -0.2841079617
 C         -2.1970993751        2.4742248245       -0.6650219137
 C         -2.8002013170        1.2547295707       -0.4219310454
 C         -2.0755965000        0.2571555590        0.2178700741
 C         -0.7679848381        0.5001327866        0.6065077143
 H         -0.2032305032       -0.2785137385        1.1066433665
 N         -2.6767211974       -0.9933025574        0.4541479361
 S         -4.1468305509       -1.0131404837        1.2670640080
 O         -4.2611902789        0.1031666277        2.1774914729
 O         -4.2353390655       -2.3320768413        1.8554670678
 C         -5.3602286663       -0.8719270895       -0.0276123694
 C         -6.3015208378        0.1377115629        0.0195097270
 C         -7.2423863471        0.2239898288       -0.9948908173
 C         -7.2257259545       -0.6963244928       -2.0317233177
 C         -6.2755478667       -1.7063764543       -2.0622893937
 C         -5.3328619989       -1.7990693901       -1.0508677276
 H         -4.5798120102       -2.5693024748       -1.0362467045
 H         -6.2656330752       -2.4202516115       -2.8701527046
 H         -7.9575246186       -0.6264370391       -2.8209517228
 H         -7.9820613902        1.0080428341       -0.9727590277
 H         -6.2708320532        0.8342324156        0.8420658572
 H         -2.0468419167       -1.6745687424        0.8527621717
 H         -3.8169981195        1.0661976983       -0.7252258412
 H         -2.7542859901        3.2509378955       -1.1661515877
 H         -0.4300333594        3.6612818511       -0.5019945253
 H          1.2986156468        1.6898854013        1.8990435074
 C          1.7936992817        3.3170557084        0.6399329614
 C          3.2569959847        3.5862363077        0.4592244006
 C          2.3058134071        3.8281366664       -0.6721441694
 H          2.0858464018        4.8501484645       -0.9441827934
 H          2.3098972234        3.1447778179       -1.5064303710
 H          3.6880118876        4.4377024991        0.9642094801
 H          3.9189649193        2.7345083183        0.3976508654
 H          1.2515195463        4.0247293140        1.2598229115
