  62
        -98.93743451
 C         -1.6753554726       -1.0400847997       -0.0543650508
 C         -2.8712704980       -1.1170009965        0.7084614883
 C         -4.0713193777       -0.5012797416        0.1256078623
 C         -3.9826083172        0.0810396479       -1.0835293714
 C         -5.0882803325        0.8194975650       -1.7824285015
 C         -5.2579640198        2.2213626182       -1.1626251065
 C         -6.5920887561        2.4378059386       -0.4480310122
 H         -6.5093905378        3.3640127311        0.1248325257
 H         -7.3755515619        2.5817066086       -1.1951145748
 C         -7.0391073321        1.3107203893        0.4879647001
 H         -7.8435360411        1.7131644593        1.1072782378
 H         -7.4739553335        0.4986732415       -0.0967194513
 C         -5.9553318210        0.7295966478        1.4053824953
 H         -5.1576417939        1.4552240227        1.5668221359
 H         -6.4061909389        0.5319912669        2.3800573755
 C         -5.3462818855       -0.5978677260        0.9166762645
 H         -6.0927834651       -1.1511787136        0.3400625027
 H         -5.0884220068       -1.2054511289        1.7890959884
 H         -4.4372362483        2.3878217204       -0.4613874748
 H         -5.1616671818        2.9784916884       -1.9424149140
 H         -4.8118235023        0.9000931796       -2.8339307033
 H         -6.0138519741        0.2530306697       -1.7077446878
 O         -2.8252204671        0.1304966568       -1.7885350615
 C         -1.6467316287       -0.4169275884       -1.3014298738
 O         -0.6802761441       -0.2687651488       -2.0772838860
 O         -2.9308787515       -1.6876794947        1.8303285662
 C         -0.4444131382       -1.6901473151        0.5548519370
 C          0.4818435365       -0.6824115620        1.1915820465
 C          0.8394455483       -0.7822134031        2.5308068726
 C          1.7252038830        0.1198789123        3.0955294916
 C          2.2699307309        1.1414355823        2.3379115703
 C          1.9105209374        1.2533716226        1.0015958955
 C          1.0312638095        0.3432179876        0.4353858352
 H          0.7646344348        0.4340065030       -0.6071610334
 N          2.4731582567        2.2839274798        0.2119355125
 S          4.1165016151        2.1043880922       -0.0738844927
 O          4.8303303886        2.3571724823        1.1519124501
 O          4.4249167466        2.9759841023       -1.1846750303
 C          4.2954201319        0.3945576119       -0.5470025246
 C          4.5815397946       -0.5498091675        0.4181448558
 C          4.6333929841       -1.8847180501        0.0515081145
 C          4.3962603600       -2.2492234319       -1.2647535659
 C          4.1055287918       -1.2890369802       -2.2214160289
 C          4.0482574248        0.0468792448       -1.8597589416
 H          3.8278688711        0.8236397913       -2.5747952426
 H          3.9166165326       -1.5757108642       -3.2436584407
 H          4.4413876246       -3.2887232283       -1.5502955518
 H          4.8537294988       -2.6351462346        0.7933387911
 H          4.7627213848       -0.2238754090        1.4290778456
 H          1.9988897815        2.3847989296       -0.6755173905
 H          2.9726859581        1.8452150729        2.7538212435
 H          1.9937109944        0.0276824634        4.1368154322
 H          0.4111168855       -1.5694907412        3.1334610237
 H         -0.8332351134       -2.3378396849        1.3517835659
 C          0.3315561780       -2.5496061254       -0.4256477967
 C          1.1665485206       -3.6762628709        0.1003559525
 C         -0.0951112121       -3.9670487515       -0.6544605955
 H         -0.0224761170       -4.3705966423       -1.6530863325
 H         -0.9513125946       -4.3257516236       -0.1016622916
 H          2.1108250024       -3.8801080650       -0.3785990778
 H          1.1668062641       -3.8428711706        1.1666009205
 H          0.7065383779       -1.9978992157       -1.2778653883
