  62
        -98.94968079
 C         -1.5018373115       -1.0453873408        0.0405123016
 C         -2.5260104309       -0.6276389746        0.9208250512
 C         -3.0562435516        0.7196621453        0.6897567650
 C         -2.5320165667        1.4854979608       -0.2848454648
 C         -2.9410585026        2.8950608056       -0.6169686374
 C         -4.1651050925        2.9936823388       -1.5379686155
 C         -5.5018072261        2.6429628953       -0.8831585467
 H         -5.6174657887        3.2212831967        0.0340266008
 H         -6.2882136684        2.9606841350       -1.5706199299
 C         -5.6851190585        1.1495515036       -0.5792945086
 H         -6.6781126609        0.8308827662       -0.9039092460
 H         -4.9582685332        0.5696031808       -1.1524682344
 C         -5.5528752583        0.7828663660        0.8988057827
 H         -5.6646760379       -0.3000946076        0.9948460458
 H         -6.3559851683        1.2562349148        1.4678898499
 C         -4.2106806037        1.1769707211        1.5296961774
 H         -4.1290657260        0.6840662096        2.5018759890
 H         -4.1666554889        2.2554331975        1.6823120968
 H         -4.0025723396        2.3480378972       -2.4039657270
 H         -4.2195460242        4.0241651851       -1.8964767660
 H         -3.1295335580        3.4462736108        0.3050051301
 H         -2.0871846369        3.3524288828       -1.1219071327
 O         -1.5285501031        1.0574345186       -1.0941257115
 C         -0.9920779010       -0.2111888629       -0.9535809394
 O         -0.0837311903       -0.4787211246       -1.7648206947
 O         -2.9702276480       -1.3449089829        1.8593246802
 C         -0.8966062218       -2.4258997396        0.2093918106
 C          0.5976248855       -2.3314198072        0.3968394639
 C          1.4887325623       -3.2503676328       -0.1446278229
 C          2.8517976679       -3.1089741019        0.0509452587
 C          3.3564605796       -2.0398393665        0.7681732304
 C          2.4727718157       -1.1206807671        1.3207156266
 C          1.1079157422       -1.2868501753        1.1570775613
 H          0.4382134942       -0.5613249506        1.5959531491
 N          2.9311550979        0.0077982782        2.0363434988
 S          2.6412615475        1.4942261191        1.3120913937
 O          3.2881692135        2.4636167495        2.1713972201
 O          1.2281179146        1.6718877864        1.1015297280
 C          3.5270486476        1.3920293442       -0.2332891910
 C          2.9519655371        0.7434332132       -1.3075383550
 C          3.6970599042        0.5938347974       -2.4681441868
 C          4.9907813677        1.0866530321       -2.5342310233
 C          5.5522078803        1.7367266839       -1.4450916347
 C          4.8172301322        1.8862321251       -0.2808054781
 H          5.2091610593        2.3859427385        0.5905230313
 H          6.5575020273        2.1225418541       -1.4986192111
 H          5.5630307462        0.9640383875       -3.4402777546
 H          3.2522588279        0.0878282197       -3.3099927357
 H          1.9407615186        0.3714120148       -1.2408908260
 H          3.9101604790       -0.0451738083        2.2857130733
 H          4.4206038086       -1.9129561778        0.8992226697
 H          3.5303737619       -3.8308686069       -0.3768399439
 H          1.1144178447       -4.0770956068       -0.7260120003
 H         -1.3371492662       -2.8283017810        1.1345651454
 C         -1.2974312515       -3.3182081554       -0.9487480869
 C         -1.5072371114       -4.7879716163       -0.7422606279
 C         -2.6829481653       -3.8884297659       -0.9728261009
 H         -3.2022868402       -3.9443805024       -1.9177577831
 H         -3.3252836242       -3.6575572230       -0.1353951033
 H         -1.2215419423       -5.4655449089       -1.5327440046
 H         -1.3597158626       -5.1799821607        0.2526620435
 H         -0.8766708286       -2.9856978830       -1.8913417109
