  62
        -98.93674980
 C          1.8198659991       -0.5009816260       -0.2254386884
 C          2.9502363753       -0.5510725713       -1.0729318908
 C          4.2576634144       -0.6966831226       -0.4118999309
 C          4.3120950482       -0.7742046970        0.9290718860
 C          5.5232349779       -0.9583179717        1.8093157072
 C          6.7833340929       -0.1544038583        1.4605780457
 C          6.5225697195        1.2310544244        0.8516426752
 H          5.4683384687        1.4935304648        0.9556653752
 H          7.0991195734        1.9757269641        1.4036549243
 C          6.9282635737        1.3216904163       -0.6214705905
 H          7.0688658320        2.3732275252       -0.8834252915
 H          7.8906739912        0.8217886110       -0.7509651668
 C          5.9247075415        0.7383095273       -1.6154699527
 H          6.3830296938        0.7578917832       -2.6072596081
 H          5.0364731905        1.3743783567       -1.6625412133
 C          5.4551765539       -0.6951239330       -1.3182383524
 H          5.1207630089       -1.1397563543       -2.2595976250
 H          6.2649572561       -1.2999263047       -0.9175831902
 H          7.4060596980       -0.7301059803        0.7772785727
 H          7.3521484873       -0.0437813411        2.3853549479
 H          5.7722375275       -2.0233459870        1.8258227444
 H          5.1858181088       -0.6918702456        2.8138111562
 O          3.1940706579       -0.7249560112        1.7079287163
 C          1.9278879079       -0.5863043123        1.1617105349
 O          1.0065858319       -0.5529551435        1.9984078437
 O          2.8718325112       -0.4818704477       -2.3294697466
 C          0.4423152466       -0.3541915341       -0.8419718408
 C         -0.2581922531        0.8773203273       -0.3229152549
 C          0.4654490180        2.0539243372       -0.1461999932
 C         -0.1468163554        3.1981854850        0.3252592828
 C         -1.5012997346        3.2025519676        0.6084657356
 C         -2.2383038549        2.0414396730        0.4169237351
 C         -1.6156662467        0.8876320947       -0.0406593472
 H         -2.2066120864       -0.0021804737       -0.1806113755
 N         -3.6126375696        2.0095940450        0.6964537542
 S         -4.6531420374        1.2256628615       -0.3538547369
 O         -4.1838541292        1.2932391759       -1.7179551909
 O         -5.9472231201        1.8231454821       -0.0989648861
 C         -4.6902590629       -0.4650143186        0.2019922048
 C         -4.8121030683       -1.4707828312       -0.7361202793
 C         -4.8968807158       -2.7854529859       -0.3042272268
 C         -4.8582207379       -3.0694963964        1.0519925835
 C         -4.7366726669       -2.0474221835        1.9813579036
 C         -4.6569747180       -0.7308096084        1.5565543112
 H         -4.5593168956        0.0859534795        2.2519470625
 H         -4.7033481244       -2.2724060435        3.0352651511
 H         -4.9213640392       -4.0931044481        1.3862358457
 H         -4.9912584474       -3.5810694509       -1.0263665602
 H         -4.8253213071       -1.2062353837       -1.7814670821
 H         -4.0008427714        2.8845772651        1.0177076078
 H         -1.9827402094        4.0967698677        0.9745281756
 H          0.4325651954        4.0983307949        0.4667769815
 H          1.5221323779        2.0576079411       -0.3769994024
 H          0.6164000381       -0.2145768771       -1.9202145532
 C         -0.3530644401       -1.6278510687       -0.6405389201
 C         -1.3610748066       -2.0673138516       -1.6585935703
 C         -0.0639633294       -2.8046726468       -1.5219828541
 H         -0.0743333716       -3.7916137681       -1.0848464355
 H          0.6847441422       -2.6744026763       -2.2897795269
 H         -2.2623153535       -2.5495297924       -1.3112837155
 H         -1.5037535466       -1.4395933626       -2.5256739225
 H         -0.5621421016       -1.8233875513        0.4054541351
