  62
        -98.94514396
 C         -2.2410949009       -0.7864633614       -0.0182563235
 C         -3.2131192292       -0.6300867189        1.0027493635
 C         -4.0407224138        0.5802265811        0.9308500329
 C         -3.8106959945        1.4748439770       -0.0474146808
 C         -4.6022725108        2.7311772290       -0.2644341171
 C         -5.7777043114        2.4899483886       -1.2219855874
 C         -6.6248408144        1.2687053274       -0.8642803744
 H         -7.4409561370        1.2163250274       -1.5881040193
 H         -6.0218118363        0.3671036328       -0.9938796814
 C         -7.2027712936        1.2913726364        0.5576522922
 H         -7.1741162606        2.3073840879        0.9528467812
 H         -8.2514110356        0.9899092074        0.5139440100
 C         -6.5081601703        0.3460548035        1.5395848687
 H         -6.4507769382       -0.6551592913        1.1053810526
 H         -7.1249867848        0.2777977865        2.4395015787
 C         -5.0993467278        0.7609636675        1.9823647384
 H         -5.1144948729        1.7926263376        2.3396719809
 H         -4.8077300890        0.1133593532        2.8142471886
 H         -6.4058977231        3.3825517985       -1.2281083804
 H         -5.3793361798        2.3478470049       -2.2293245230
 H         -4.9689633422        3.0929419950        0.6942555797
 H         -3.9399787684        3.4831833743       -0.6969515601
 O         -2.8477698556        1.3091832461       -0.9888102365
 C         -2.0445236433        0.1777602777       -1.0069750245
 O         -1.2224533675        0.1606971562       -1.9442380900
 H          0.7672383447       -1.3590994565       -1.5712971416
 C          0.9919177159       -1.2655902806       -0.5206423550
 C          0.0290517598       -1.5905329652        0.4221511329
 C          0.3342688988       -1.4257912719        1.7705007870
 C          1.5721037750       -0.9508204505        2.1609250197
 C          2.5271226869       -0.6172172056        1.2159154969
 C          2.2255750516       -0.7614996195       -0.1310058444
 N          3.1819609337       -0.4032201121       -1.0987465771
 S          3.8951794694        1.1114775215       -0.9565528769
 O          3.0368663782        2.0500745076       -0.2708795282
 O          4.3017311244        1.4691164076       -2.2984588396
 C          5.3537932141        0.7942015522        0.0169137137
 C          5.5940880295        1.5321176073        1.1593117900
 C          6.7411355126        1.2756071515        1.8945525903
 C          7.6234409177        0.2916322823        1.4758094522
 C          7.3688260962       -0.4392762805        0.3248075704
 C          6.2246976716       -0.1871079768       -0.4150683230
 H          5.9911565459       -0.7295887333       -1.3158073847
 H          8.0571345816       -1.2038968699        0.0026153250
 H          8.5147000183        0.0934418100        2.0499708286
 H          6.9403431580        1.8434218344        2.7892199608
 H          4.8762896951        2.2831806082        1.4490349176
 H          2.8577717375       -0.5458159145       -2.0452133871
 H          3.4893380107       -0.2317840157        1.5113009329
 H          1.7956816331       -0.8329731832        3.2103360588
 H         -0.4206929918       -1.6598133348        2.5079942012
 C         -1.3600584232       -2.0253957324        0.0263406561
 H         -1.7687655603       -2.6413104023        0.8384713878
 C         -1.4130274995       -2.8203727022       -1.2610709768
 C         -0.8896070532       -4.2246338414       -1.2747445061
 C         -2.3636331442       -3.9732799747       -1.3702113652
 H         -2.8574921890       -4.1446460413       -2.3150214437
 H         -2.9775633882       -4.1978949063       -0.5103789912
 H         -0.3690324731       -4.5727445989       -2.1536782097
 H         -0.5015800137       -4.6184201145       -0.3477087821
 H         -1.2693389858       -2.2162153456       -2.1484286570
 O         -3.3805012831       -1.4667737651        1.9293158044
