  62
        -98.94187078
 C         -1.1603617182       -1.4778490358        0.5148845444
 C         -2.1197644159       -1.1849110875       -0.4800529618
 C         -3.1950903094       -0.2425525681       -0.1095376239
 C         -3.1954214535        0.2891273656        1.1268702910
 C         -4.1536449158        1.2960129093        1.7045722923
 C         -3.8726449274        2.7240324620        1.2079860027
 C         -3.5674433431        2.8395111388       -0.2835312961
 H         -3.2695556732        3.8731812664       -0.4807623436
 H         -2.7035891263        2.2143646154       -0.5212099394
 C         -4.7278097436        2.5000573781       -1.2165326481
 H         -5.5567512323        3.1825326402       -1.0145866774
 H         -4.3856585952        2.6856917471       -2.2379371520
 C         -5.2543213199        1.0656166657       -1.1431547157
 H         -5.8668008565        0.9207715001       -0.2573542530
 H         -5.9130132865        0.9181685024       -2.0041597661
 C         -4.1815498281       -0.0156607873       -1.2294378571
 H         -3.5755095067        0.1537220360       -2.1269986141
 H         -4.6746792498       -0.9820479386       -1.3917434718
 H         -4.7286501035        3.3534144063        1.4580213303
 H         -3.0016599552        3.1042851169        1.7480055885
 H         -5.1772025531        1.0029795087        1.4906644212
 H         -4.0192892524        1.2734182732        2.7883816395
 O         -2.2356384488       -0.0077588826        2.0489670693
 C         -1.1923821258       -0.8662415188        1.7662142584
 O         -0.3683659927       -1.0058560485        2.6947683692
 O         -2.0843926976       -1.6785729266       -1.6384530126
 C          0.0011110553       -2.4025833958        0.2056118757
 C          0.8595910507       -1.8233644082       -0.8946481552
 C          1.5219542913       -2.6026499283       -1.8354500271
 C          2.3215540458       -2.0077839327       -2.7962827880
 C          2.4970407889       -0.6359155930       -2.8298075879
 C          1.8409130354        0.1516140028       -1.8907884192
 C          1.0309869570       -0.4474167903       -0.9403160913
 H          0.5049681418        0.1778135712       -0.2361080289
 N          1.9790805008        1.5474636822       -1.8810489787
 S          1.9822622338        2.3731211112       -0.4271515058
 O          0.6544220205        2.4252437067        0.1308645449
 O          2.5798497215        3.6514854794       -0.7509762707
 C          3.0906640343        1.4436958890        0.6171934720
 C          4.4379801701        1.5051041993        0.3135091563
 C          5.3327791252        0.7608247836        1.0632054300
 C          4.8674211253       -0.0371650470        2.0979965106
 C          3.5146682658       -0.0839711548        2.3938996112
 C          2.6138834336        0.6626863743        1.6494142521
 H          1.5574860587        0.6352666576        1.8678183088
 H          3.1409047216       -0.6998739736        3.1965659100
 H          5.5614845842       -0.6227801787        2.6799009462
 H          6.3863250408        0.8017452371        0.8386950471
 H          4.7603152612        2.1465862367       -0.4905258636
 H          2.6575563071        1.9178855636       -2.5296558413
 H          3.1240569561       -0.1767748441       -3.5783271258
 H          2.8230748763       -2.6234348749       -3.5273177720
 H          1.4059316055       -3.6739916590       -1.8205490353
 H          0.6134579894       -2.4331227007        1.1201531620
 C         -0.4937668507       -3.8026885438       -0.0951223299
 C          0.3281139754       -4.9961604308        0.2864995319
 C         -0.9237974452       -4.6754746927        1.0444916503
 H         -1.7880814435       -5.3087220363        0.9120956686
 H         -0.8305092108       -4.2687051194        2.0413163473
 H          0.3219119643       -5.8560103484       -0.3663529278
 H          1.2732991700       -4.8184254147        0.7768739474
 H         -1.0755434058       -3.8488047346       -1.0082194794
