  62
        -98.93168526
 C         -1.9124895316       -1.2428795299        0.7289447469
 C         -1.9464918770        0.1522814810        0.9710979265
 C         -3.1648767758        0.8861162994        0.5786579834
 C         -4.1786853550        0.1968188993        0.0239157193
 C         -5.5043893229        0.7118849340       -0.4719780074
 C         -5.3945641041        1.4408688955       -1.8196581858
 C         -4.2353973791        2.4284094490       -1.9197287712
 H         -4.2122234239        2.8100027283       -2.9440271488
 H         -3.2969323156        1.8965876124       -1.7524131352
 C         -4.3189639485        3.6262322682       -0.9761819664
 H         -5.2551449440        4.1591915180       -1.1562900341
 H         -3.4989628701        4.3002297946       -1.2372832903
 C         -4.2144703412        3.3115012289        0.5184816351
 H         -5.1563653829        2.9377344368        0.9110574072
 H         -4.0161830125        4.2548632001        1.0354600656
 C         -3.0793677286        2.3617681017        0.8865693566
 H         -2.9040370034        2.4257404242        1.9669561159
 H         -2.1526557380        2.7174214283        0.4214944279
 H         -6.3360438269        1.9598663817       -2.0082058456
 H         -5.2616134939        0.6893212402       -2.6019060245
 H         -5.9610709977        1.3526437466        0.2765638298
 H         -6.1491708126       -0.1604823641       -0.6007216543
 O         -4.1013553766       -1.1449884109       -0.1981590116
 C         -2.9800935532       -1.8993798033        0.1167429041
 O         -3.0837013947       -3.0993052683       -0.1945348005
 O         -0.9874780411        0.7719739536        1.5036418622
 C         -0.6390442989       -1.9629876188        1.1346784588
 C          0.3949157854       -1.8587198490        0.0416938582
 C          0.0571082070       -2.0896888641       -1.2878083687
 C          1.0057737631       -1.9667031065       -2.2870830952
 C          2.3096905217       -1.6171646353       -1.9816439074
 C          2.6580293156       -1.3846491708       -0.6580933061
 C          1.7025200848       -1.5063818719        0.3443053729
 H          1.9758484473       -1.3052319681        1.3714016218
 N          3.9898342623       -1.0294818284       -0.3554537740
 S          4.5271855420        0.4775468683       -0.8565739720
 O          4.1497719391        0.6701474199       -2.2323983776
 O          5.9408480119        0.5110822175       -0.5621884475
 C          3.6717556782        1.6318022447        0.2007198163
 C          2.3123323729        1.8062564017        0.0301272507
 C          1.6283395759        2.6315905161        0.9082057813
 C          2.3145977919        3.2733857581        1.9278847996
 C          3.6817119995        3.0969807017        2.0791995723
 C          4.3680158580        2.2591659959        1.2151035175
 H          5.4277462446        2.0808527037        1.3018490871
 H          4.2108204442        3.6003144496        2.8725164583
 H          1.7751209758        3.9110118269        2.6103683296
 H          0.5598084236        2.7368885613        0.8137314350
 H          1.8050402043        1.2953510442       -0.7730476489
 H          4.2275976427       -1.1531999186        0.6192524047
 H          3.0554338573       -1.5013139858       -2.7506035015
 H          0.7280696356       -2.1479407757       -3.3146130904
 H         -0.9586465372       -2.3679104347       -1.5289108299
 H         -0.2556556986       -1.3967244039        1.9988572239
 C         -0.8639507203       -3.3952321417        1.5951283955
 C         -0.4866047628       -4.5912962985        0.7796004876
 C          0.3006739531       -4.2470539876        2.0060666383
 H          0.2001753516       -4.8726182073        2.8799376207
 H          1.2914233641       -3.8428923662        1.8623069266
 H         -1.1504848511       -5.4416063671        0.8031128716
 H         -0.0286709734       -4.4280903662       -0.1834116731
 H         -1.7671424730       -3.4892147008        2.1890051466
