  62
        -98.93381175
 C          2.0239777301        0.5640394861        0.0303011421
 C          2.6924954177       -0.5897592629        0.5115927197
 C          4.0528584535       -0.8329048204        0.0072909129
 C          4.5839257044        0.0228727323       -0.8823112064
 C          5.9291533104       -0.0404469689       -1.5614219019
 C          7.1379286008       -0.4372682592       -0.7032877631
 C          7.0760868369        0.0273176922        0.7591529586
 H          8.0051110899        0.5441565963        1.0068892223
 H          6.2611052209        0.7410369504        0.8910352667
 C          6.9051888971       -1.1297681332        1.7464153986
 H          7.5608711193       -1.9487885909        1.4427438908
 H          7.2323836808       -0.7992344384        2.7352195151
 C          5.4795769922       -1.6598362274        1.8956685873
 H          5.5158664704       -2.5483793743        2.5306899083
 H          4.8618771094       -0.9214939667        2.4141029424
 C          4.7664729940       -2.0222992494        0.5827265452
 H          3.9899110899       -2.7566805214        0.8137769803
 H          5.4569942218       -2.4626340656       -0.1325511331
 H          7.2624020465       -1.5189926172       -0.7268401359
 H          8.0195311059       -0.0098859039       -1.1841348101
 H          5.8498298147       -0.7289287130       -2.4079143984
 H          6.0857825781        0.9590241069       -1.9743981991
 O          3.9022584025        1.1117969218       -1.3322096942
 C          2.6160930626        1.4149939336       -0.9024182537
 O          2.1470564349        2.4432238462       -1.4218858953
 O          2.1679774944       -1.3878908537        1.3346223595
 C          0.6269082211        0.8103148226        0.5706324713
 C         -0.4037898029        0.1572891245       -0.3133118111
 C         -0.4634248041        0.4333182056       -1.6759730363
 C         -1.4221521839       -0.1665534200       -2.4721359023
 C         -2.3388549719       -1.0505178229       -1.9290631105
 C         -2.2859663839       -1.3335896357       -0.5713962410
 C         -1.3239016667       -0.7286103729        0.2271793441
 H         -1.2792797362       -0.9637461216        1.2820068594
 N         -3.2364101015       -2.2140830855       -0.0126137510
 S         -4.8335416714       -1.7098325840       -0.1230783177
 O         -5.5540375562       -2.4842935919        0.8611269119
 O         -5.2765780486       -1.8367378897       -1.4873882603
 C         -4.7693579735        0.0079171920        0.3505639522
 C         -4.6168413895        0.9760328067       -0.6216681290
 C         -4.4595842813        2.2963414052       -0.2314465737
 C         -4.4565930082        2.6239947049        1.1153182922
 C         -4.6182267819        1.6406068537        2.0796097440
 C         -4.7687932931        0.3178327140        1.6962878311
 H         -4.8982077592       -0.4763552689        2.4143138062
 H         -4.6176175222        1.8996092132        3.1262976148
 H         -4.3235338946        3.6511769386        1.4147865734
 H         -4.3328424714        3.0637995738       -0.9778128822
 H         -4.6276024545        0.6819823423       -1.6581806634
 H         -3.0263747300       -2.4705772922        0.9419383214
 H         -3.0984114757       -1.5194231881       -2.5336723242
 H         -1.4564871496        0.0561377281       -3.5279612254
 H          0.2476776889        1.1264499904       -2.0996490926
 H          0.6099765445        0.2835056762        1.5378741412
 C          0.3276912894        2.2778820270        0.8466688785
 C         -0.7308861303        3.0588179210        0.1322576779
 C         -0.9392115975        2.6525392825        1.5578712873
 H         -0.8976619009        3.4077594741        2.3275699652
 H         -1.6505831520        1.8626189182        1.7485471332
 H         -0.5182866332        4.0930026526       -0.0905390900
 H         -1.3122791432        2.5602461774       -0.6269408825
 H          1.2211998886        2.8278968208        1.1224582127
