  62
        -98.93582137
 C          2.3735902708        0.5058428998        0.9041233610
 C          3.4372932224        1.0794654669        0.1630514052
 C          4.7273037085        0.3722240786        0.2434526623
 C          4.8347874104       -0.7355828875        0.9972485206
 C          6.0689477800       -1.5814285404        1.1145911867
 C          6.0760411957       -2.7016160040        0.0649247911
 C          5.7764918011       -2.2192766620       -1.3544277938
 H          4.7461777247       -1.8583699230       -1.3975401310
 H          5.8397347270       -3.0881947903       -2.0130538380
 C          6.7205409791       -1.1212331100       -1.8639321604
 H          7.0225000164       -1.3650172444       -2.8846775622
 H          7.6251586589       -1.0989461874       -1.2552834650
 C          6.1027102199        0.2776481147       -1.9039649327
 H          5.1472464014        0.2407533621       -2.4331252978
 H          6.7692999895        0.9273983722       -2.4772176789
 C          5.8734959487        0.9455924074       -0.5422089699
 H          5.6158863509        1.9928465440       -0.7254468323
 H          6.7947168002        0.9149758378        0.0428952896
 H          5.3199298035       -3.4398657519        0.3421571570
 H          7.0521916459       -3.1895495804        0.0875653547
 H          6.9479527063       -0.9510590659        0.9951329552
 H          6.0853348489       -2.0281428355        2.1101247410
 O          3.7977725210       -1.2448981723        1.7114652857
 C          2.5506484336       -0.6473640341        1.6736136629
 O          1.6891140474       -1.2241416062        2.3693642766
 H         -1.5260935997        0.0656546784        1.0390627105
 C         -1.1440918328        0.0957739303        0.0290462188
 C          0.1360011862        0.5697154850       -0.2153018596
 C          0.6114698288        0.5707539197       -1.5231325354
 C         -0.1855457458        0.1158984379       -2.5576343896
 C         -1.4727496242       -0.3294033996       -2.3136252035
 C         -1.9539452530       -0.3423147202       -1.0097090674
 N         -3.2476665495       -0.8047191238       -0.7235509220
 S         -4.0998314837       -0.0415455432        0.5199890894
 O         -3.9021801253        1.3881351684        0.4447011776
 O         -3.7567354456       -0.6685496029        1.7716457092
 C         -5.7738482088       -0.4628827538        0.0747733378
 C         -6.2519873229       -1.7167397670        0.4064696288
 C         -7.5422546884       -2.0604964414        0.0358783436
 C         -8.3281630703       -1.1506472462       -0.6560739442
 C         -7.8351377489        0.1043941476       -0.9799085123
 C         -6.5448373932        0.4544223989       -0.6138374663
 H         -6.1219884086        1.4208528836       -0.8366219220
 H         -8.4496109901        0.8105209778       -1.5147214893
 H         -9.3325622840       -1.4205710420       -0.9417333645
 H         -7.9301875734       -3.0340053318        0.2888413493
 H         -5.6082726998       -2.3859324472        0.9534379851
 H         -3.8146511409       -0.9311624679       -1.5508510230
 H         -2.0977527660       -0.6713211311       -3.1245305514
 H          0.1948203298        0.1223692786       -3.5681106397
 H          1.6044993647        0.9447314991       -1.7200721782
 C          0.9696849760        1.0864281821        0.9289622781
 H          0.5161222211        0.7046975937        1.8586297558
 C          0.9485412846        2.6072753423        1.0178678023
 C          0.5346706375        3.5008682513       -0.1081472616
 C         -0.3627001324        3.3348670419        1.0791258846
 H         -0.4639627098        4.1564329163        1.7725232978
 H         -1.2670534985        2.7557336412        0.9522270777
 H          0.2371287401        3.0449535944       -1.0389900321
 H          1.0717880615        4.4288264199       -0.2309985786
 H          1.7396774032        2.9816614952        1.6602799043
 O          3.3388211933        2.1194963732       -0.5358089012
