  62
        -98.93642453
 C         -1.6768663509       -0.3477206600       -0.3859639387
 C         -2.8805657008       -0.8081400205       -0.9691656284
 C         -4.1088301609       -0.5633018901       -0.1986683886
 C         -4.0204838910        0.0524465807        0.9946672710
 C         -5.1848667410        0.4463357011        1.8585735707
 C         -5.8560701011        1.7132778407        1.2904758198
 C         -7.2843913811        1.4995141203        0.7890536599
 H         -7.5694952511        2.3899108399        0.2245419093
 H         -7.9551184911        1.4252860808        1.6477007599
 C         -7.5063770109        0.2623735397       -0.0863830593
 H         -8.4762224609        0.3869443293       -0.5728648794
 H         -7.5871457909       -0.6242830099        0.5443149213
 C         -6.4453088909        0.0032072291       -1.1636836191
 H         -5.9369357710        0.9288998589       -1.4341338897
 H         -6.9538257408       -0.3539248116       -2.0616139289
 C         -5.3985067308       -1.0627538306       -0.7893510883
 H         -5.1014445607       -1.5938115112       -1.6987170080
 H         -5.8497196808       -1.7957590902       -0.1145908279
 H         -5.2363074111        2.0923840802        0.4753107496
 H         -5.8757949212        2.4894954112        2.0568947293
 H         -5.8977695610       -0.3734614689        1.9120138612
 H         -4.7968288511        0.6377136618        2.8591424906
 O         -2.8422832810        0.4656071211        1.5290693408
 C         -1.6411945910        0.2753829208        0.8612282809
 O         -0.6416445010        0.6970826013        1.4711015107
 H          2.2499841391       -0.1336004097       -0.3730117786
 C          1.8505841192       -1.0615546395       -0.0020403481
 C          0.5492351192       -1.4292168598       -0.3013713079
 C          0.0700518493       -2.6437150195        0.1849388929
 C          0.8699887993       -3.4577513689        0.9617432135
 C          2.1676508293       -3.0828410586        1.2650587633
 C          2.6582329192       -1.8773950389        0.7798672725
 N          3.9551875292       -1.4556200486        1.0976114023
 S          4.8697712591       -0.5713245592        0.0182065018
 O          4.6727587192       -1.0176788701       -1.3414192880
 O          6.2221381291       -0.6751294687        0.5245742219
 C          4.3092044890        1.1085843209        0.1996838506
 C          4.2561268689        1.9154717602       -0.9197600099
 C          3.8438569288        3.2311600002       -0.7803609908
 C          3.4958445487        3.7151721810        0.4711340889
 C          3.5611050088        2.8938883917        1.5862796794
 C          3.9744889889        1.5780118117        1.4539284703
 H          4.0271609489        0.9126243822        2.2993947607
 H          3.2850400287        3.2723686623        2.5573196392
 H          3.1695073286        4.7377731910        0.5776785082
 H          3.7925080988        3.8721161996       -1.6462811712
 H          4.5265967090        1.4931172996       -1.8747638396
 H          4.5091158292       -2.1096418382        1.6299271527
 H          2.7930281193       -3.7159207782        1.8760138537
 H          0.4834732394       -4.3947898687        1.3337523641
 H         -0.9436341307       -2.9370957097       -0.0523080169
 C         -0.3700726808       -0.5646948704       -1.1277255585
 H         -0.6383043307       -1.1243167110       -2.0362313081
 C          0.2374661091        0.7614348594       -1.5327086693
 C          1.1542513291        0.8402745387       -2.7153126493
 C         -0.2262442409        1.4167564585       -2.7976788898
 H         -0.3366303510        2.4905089185       -2.8112053705
 H         -0.9664567209        0.8937496881       -3.3854900194
 H          1.3609560892       -0.0745852216       -3.2500496787
 H          1.9919165090        1.5192454788       -2.6703409897
 H          0.4434316390        1.4031079100       -0.6830328497
 O         -2.9248013707       -1.4027625012       -2.0805582780
