  62
        -98.94626122
 C          2.3884271571        0.5323008451       -0.0109007472
 C          1.3927981534        0.7271987842        0.9738967776
 C          0.6994515877        2.0207729550        0.9489749511
 C          1.0370214213        2.9261035853        0.0130389219
 C          0.3288421764        4.2283282220       -0.2287153926
 C         -0.9748682138        3.9642418351       -1.0109871973
 C         -2.2536236955        4.2930763934       -0.2395467624
 H         -2.3851011899        5.3773869081       -0.2134127886
 H         -3.0869870119        3.8703774089       -0.8054405448
 C         -2.3153767021        3.7748560358        1.2006394889
 H         -1.7534840785        4.4440253970        1.8544110892
 H         -3.3593964743        3.8333700872        1.5153944356
 C         -1.8152016858        2.3403395974        1.4146730399
 H         -1.8762636267        1.7708434198        0.4861501607
 H         -2.4755281310        1.8496043205        2.1332493111
 C         -0.3809783110        2.2431499441        1.9701885611
 H         -0.1522576416        3.1352414885        2.5597014001
 H         -0.3215410271        1.3792960034        2.6383081543
 H         -0.9716536904        4.5495593551       -1.9324502020
 H         -0.9917127740        2.9128698915       -1.3097491061
 H          0.1159310288        4.7174913541        0.7192887372
 H          0.9981442211        4.8636624284       -0.8095382628
 O          2.0251891943        2.7179994500       -0.8958684385
 C          2.7012267518        1.5099816792       -0.9520265382
 O          3.5474566733        1.4316042786       -1.8676688492
 H          0.8750355832       -0.6756930220       -1.6327062311
 C          0.9217863554       -1.6161725633       -1.1029765061
 C          2.0038312096       -1.8871405078       -0.2747320444
 C          2.0464878172       -3.1134594827        0.3763651634
 C          1.0132179112       -4.0229562132        0.2260956661
 C         -0.0908609913       -3.7218119826       -0.5505320782
 C         -0.1360013058       -2.5025343955       -1.2169544189
 N         -1.2424842118       -2.1341697431       -2.0098692936
 S         -2.1000245025       -0.7603054124       -1.5775682779
 O         -3.1721810384       -0.6730392155       -2.5462394168
 O         -1.2175998394        0.3754198505       -1.5052276668
 C         -2.7924414055       -1.1406952047        0.0224975746
 C         -1.9733913894       -1.1583663947        1.1335633704
 C         -2.5226085039       -1.5078701161        2.3581058013
 C         -3.8668545837       -1.8321906656        2.4519227680
 C         -4.6747015042       -1.8111489305        1.3247691531
 C         -4.1332584792       -1.4670686725        0.0971584419
 H         -4.7210160930       -1.4343019111       -0.8060126607
 H         -5.7206615262       -2.0620341069        1.3981319152
 H         -4.2859548343       -2.1015713792        3.4086142081
 H         -1.8859518230       -1.5211172165        3.2283317658
 H         -0.9308917178       -0.8946324709        1.0483415878
 H         -1.8956762843       -2.8884677227       -2.1723883303
 H         -0.9106062135       -4.4185044929       -0.6414607655
 H          1.0587088988       -4.9710168730        0.7398548304
 H          2.8848199985       -3.3534341797        1.0097841587
 C          3.0652512072       -0.8220874126       -0.1266656696
 H          3.6604396977       -0.7906387132       -1.0513358365
 C          3.9935858363       -1.0576609700        1.0468449781
 C          5.2255597928       -1.8948039772        0.8819918799
 C          5.3441342918       -0.4093970557        1.0391441620
 H          5.7329259088       -0.0154362937        1.9660597818
 H          5.6027278439        0.1811699380        0.1719536261
 H          5.5382405944       -2.5205914322        1.7042574651
 H          5.4181249643       -2.3159533503       -0.0932517931
 H          3.4643847185       -1.1009467795        1.9917406778
 O          1.0859606626       -0.1499856901        1.8253227651
