  62
        -98.93979561
 C          2.2090515411        0.7977815659        0.1162355119
 C          2.4405352596       -0.3240109388        0.9472214572
 C          3.0977585690       -1.4728949229        0.3106226055
 C          3.3973397183       -1.4141068034       -1.0001427201
 C          4.1111656407       -2.4901435245       -1.7649047031
 C          5.6301429725       -2.2685914562       -1.7487167761
 C          6.2014740603       -2.0069490430       -0.3551467051
 H          7.2828235862       -1.8976989760       -0.4622519258
 H          5.8175559353       -1.0532279141        0.0141808175
 C          5.8978433053       -3.1065257087        0.6720810821
 H          5.6036559740       -4.0225277411        0.1585552850
 H          6.8105651192       -3.3265239561        1.2297674235
 C          4.8270921205       -2.7354749434        1.6997172125
 H          4.8474137758       -3.4831447861        2.4971243960
 H          5.0712505236       -1.7702325152        2.1505407358
 C          3.3886208658       -2.6706489814        1.1709687452
 H          2.7213698668       -2.5882705055        2.0340832472
 H          3.1503385670       -3.5942843978        0.6395310483
 H          6.1113629472       -3.1470901597       -2.1823880069
 H          5.8610281180       -1.4078316132       -2.3805224880
 H          3.7606609776       -2.4669281693       -2.7980559397
 H          3.8704027686       -3.4586686800       -1.3309422856
 O          3.1184440921       -0.3365585094       -1.7767893398
 C          2.5228538296        0.7973295200       -1.2433569505
 O          2.3294092324        1.7100456936       -2.0671867645
 O          2.1053829908       -0.3654865842        2.1629106273
 C          1.5466270356        2.0266647297        0.7132158258
 C          0.1973446429        2.2421861284        0.0712156780
 C         -0.2016055322        3.4423336250       -0.4997192750
 C         -1.4575595227        3.5610976168       -1.0710137781
 C         -2.3390118122        2.4965979189       -1.0836545554
 C         -1.9550381057        1.2937342710       -0.5032258742
 C         -0.6988863374        1.1792833185        0.0719450501
 H         -0.3983550281        0.2431602649        0.5273399850
 N         -2.8356558402        0.1905261067       -0.5188452191
 S         -4.4015696461        0.4620237048        0.0602960418
 O         -5.1319551802        1.2144403174       -0.9274597863
 O         -4.3491141737        1.0424696335        1.3847408763
 C         -5.0283927109       -1.2036024595        0.1355326850
 C         -5.5026856836       -1.7855294959       -1.0246198062
 C         -5.9713301051       -3.0886876848       -0.9763073359
 C         -5.9575318648       -3.7840460888        0.2238237337
 C         -5.4792636252       -3.1861007362        1.3799945342
 C         -5.0075079790       -1.8833840884        1.3383267561
 H         -4.6352147270       -1.3763891293        2.2143459998
 H         -5.4721629536       -3.7279742813        2.3120679160
 H         -6.3247509943       -4.7975618405        0.2594684052
 H         -6.3461721707       -3.5566878256       -1.8722324432
 H         -5.5027750812       -1.2036899634       -1.9314153398
 H         -2.4340835385       -0.6025359272       -0.0352090801
 H         -3.3195167418        2.5832157064       -1.5223525170
 H         -1.7538678063        4.4986737921       -1.5169879812
 H          0.4701324445        4.2846963340       -0.5040623577
 H          1.3782054798        1.7808786823        1.7726203254
 C          2.4644066807        3.2272926186        0.6332659026
 C          2.3224229372        4.3476868286        1.6184281648
 C          3.4976186718        3.4218413152        1.7008378437
 H          4.4701590231        3.7938095758        1.4154453892
 H          3.5251340758        2.6993889263        2.5036730406
 H          2.4898419684        5.3583474663        1.2781199037
 H          1.5516008312        4.2576620421        2.3689734463
 H          2.7458846352        3.4711991740       -0.3847254803
