  62
        -98.93464321
 C         -2.5969607999       -0.0946671612        0.5418192143
 C         -2.2167529148        0.4914781152       -0.6901248629
 C         -1.8666657519        1.9236697097       -0.6582521229
 C         -1.8967813819        2.5881257565        0.5084142081
 C         -1.6258643054        4.0470829705        0.7855243012
 C         -0.4803784652        4.7270123201        0.0281343311
 C          0.7582076082        3.8494462670       -0.2033576462
 H          1.6443098725        4.3893429897        0.1366914442
 H          0.6930290758        2.9305799499        0.3834915010
 C          0.9622486559        3.4802670767       -1.6738903162
 H          0.7703399019        4.3585582615       -2.2950471797
 H          2.0067184243        3.1944272602       -1.8181341567
 C          0.1004419190        2.3171999791       -2.1592148685
 H          0.3940649971        1.4063493566       -1.6294852024
 H          0.3032706131        2.1587542422       -3.2214590626
 C         -1.4146492512        2.5046372274       -1.9674868734
 H         -1.6992619774        3.5498158269       -2.0647032623
 H         -1.9283384978        1.9303059656       -2.7433101281
 H         -0.8438919099        5.0925203165       -0.9313238558
 H         -0.2001369316        5.6051217161        0.6132206779
 H         -2.5522880321        4.6009727272        0.6025791570
 H         -1.4305739641        4.0969555769        1.8600017544
 O         -2.2546623583        1.9797723899        1.6774559280
 C         -2.5708123083        0.6348493344        1.7295697234
 O         -2.8127061946        0.2109503850        2.8805000535
 H         -0.2842282470       -1.1583364000        0.9275955141
 C         -0.4623993668       -1.9416236026        0.2039773704
 C         -1.7700283175       -2.3321787281       -0.0624879753
 C         -1.9818446362       -3.3613342552       -0.9678107891
 C         -0.9060093901       -3.9621505077       -1.6017221716
 C          0.3875799880       -3.5352034771       -1.3718796289
 C          0.6086251519       -2.4965197919       -0.4708632945
 N          1.9021836896       -1.9805014868       -0.2844927821
 S          2.2333916063       -0.7530621660        0.8068208398
 O          2.1462330407       -1.2421839780        2.1685433544
 O          1.4364335972        0.4019912243        0.4860779432
 C          3.9359224151       -0.4419587942        0.3832417100
 C          4.2005559843        0.3788442561       -0.6964447309
 C          5.5183810166        0.6082274249       -1.0577474137
 C          6.5444921295        0.0142942637       -0.3376543292
 C          6.2640098355       -0.8055343289        0.7449631814
 C          4.9474599822       -1.0387236508        1.1110822731
 H          4.6818636977       -1.6591672727        1.9519081916
 H          7.0640314547       -1.2626778910        1.3045896580
 H          7.5695518740        0.1942821085       -0.6205548303
 H          5.7397089739        1.2473835588       -1.8972134675
 H          3.3685234050        0.8224591445       -1.2190601110
 H          2.6457328329       -2.6582841127       -0.3603395539
 H          1.2197384973       -3.9838299344       -1.8915282319
 H         -1.0822907728       -4.7648838269       -2.3017605090
 H         -2.9856097594       -3.6810429089       -1.1949722810
 C         -2.8651922205       -1.5866653088        0.6631019143
 H         -2.7576364445       -1.8026260745        1.7404818556
 C         -4.2688265691       -2.0225534342        0.2714582480
 C         -5.4075779010       -1.0476656822        0.2659491775
 C         -4.8992191142       -1.6130740843       -1.0243188789
 H         -5.5151943043       -2.3329430211       -1.5433002638
 H         -4.3213119621       -0.9764627089       -1.6746644566
 H         -5.1821137850       -0.0165396696        0.4981611940
 H         -6.3666803956       -1.3790664632        0.6352178306
 H         -4.4984528507       -3.0206958040        0.6320828119
 O         -2.1787619751       -0.1360277640       -1.7796655634
