  62
        -98.93370001
 C         -2.4115476640       -0.3798745336        0.2863419127
 C         -3.5873288786       -0.1483037889        1.0343675994
 C         -4.7558448685        0.3732955442        0.2991655366
 C         -4.6322236168        0.6188384714       -1.0187442000
 C         -5.6848826465        1.1130812547       -1.9749368172
 C         -6.6892420217        0.0172223287       -2.3680040169
 C         -7.1796090660       -0.8512650862       -1.2123588446
 H         -7.7889288162       -1.6540140470       -1.6359496352
 H         -6.3214202356       -1.3186652945       -0.7261320432
 C         -8.0238599085       -0.1275526830       -0.1661459738
 H         -8.9046069899        0.3006865249       -0.6499998138
 H         -8.3701640449       -0.8791239635        0.5479509638
 C         -7.3145261789        0.9791341609        0.6166641730
 H         -7.9503776017        1.2326303964        1.4700718708
 H         -7.2233630453        1.8837155594        0.0214633206
 C         -5.9565544318        0.5856072148        1.1898175351
 H         -6.0668027920       -0.3370363724        1.7710693253
 H         -5.6521837478        1.3480212285        1.9174557089
 H         -6.2037256789       -0.6393895197       -3.0940264958
 H         -7.5415708783        0.4904125087       -2.8583860842
 H         -6.1947154190        1.9751209089       -1.5551174168
 H         -5.1604758180        1.4428511605       -2.8745044477
 O         -3.4705372776        0.3934744531       -1.6968843687
 C         -2.3389558134       -0.1039946408       -1.0782053560
 O         -1.3606934741       -0.2548575426       -1.8343263465
 O         -3.6671377396       -0.3703710353        2.2736802596
 C         -1.1813531874       -0.9163102226        0.9956937257
 C         -0.0627427375        0.0911449976        0.8926697452
 C         -0.2826022984        1.3777985122        1.3790264977
 C          0.7037012279        2.3413553165        1.3022632287
 C          1.9318381555        2.0463151922        0.7359309921
 C          2.1645925240        0.7661198227        0.2544567002
 C          1.1739725984       -0.2058412272        0.3445003127
 H          1.3701901842       -1.1960574327       -0.0358545948
 N          3.4026857111        0.4605682978       -0.3384540107
 S          4.7976216452        1.0229231169        0.4293161810
 O          4.7317757164        0.7395918403        1.8459978808
 O          4.9941507311        2.4058501453        0.0739605109
 C          6.0421023215        0.0146471601       -0.3513390014
 C          6.4413242200       -1.1594707338        0.2588015804
 C          7.3910830197       -1.9507628190       -0.3679324448
 C          7.9202701725       -1.5580216367       -1.5881877613
 C          7.5091557379       -0.3769846724       -2.1881784295
 C          6.5603512474        0.4192863395       -1.5667868270
 H          6.2168532510        1.3485486105       -1.9904442199
 H          7.9245574407       -0.0742849824       -3.1358429508
 H          8.6598616687       -2.1751998078       -2.0734150872
 H          7.7149879523       -2.8679314052        0.0970718688
 H          6.0109182470       -1.4206823160        1.2123343980
 H          3.4832458180       -0.5204085703       -0.5687313927
 H          2.7108309542        2.7884910227        0.6679779589
 H          0.5173018127        3.3341876937        1.6842893916
 H         -1.2431963899        1.6113148097        1.8184343166
 H         -1.4679809505       -0.9968760638        2.0546098305
 C         -0.8255414791       -2.2943264037        0.4805950651
 C         -0.0378839614       -3.2364935270        1.3401462429
 C         -1.4932190417       -3.4897798163        1.0886356293
 H         -1.7713087480       -4.3088323486        0.4425282735
 H         -2.1916589005       -3.3122933152        1.8932810417
 H          0.6826200371       -3.8872947824        0.8680340596
 H          0.2552783727       -2.8906592292        2.3199614652
 H         -0.6546031884       -2.3092604070       -0.5899998007
