  62
        -98.93323283
 C         -2.5689896947       -1.1864226049        0.3833647582
 C         -3.0778070049       -0.5319112001       -0.7669609268
 C         -4.1275680491        0.4717231429       -0.5197685291
 C         -4.5417658703        0.7082645685        0.7368445154
 C         -5.5664534293        1.7325031436        1.1280802936
 C         -4.9095172177        3.0812657169        1.4531804919
 C         -3.9167391409        3.5563924648        0.3921160783
 H         -3.5411110930        4.5306664891        0.7124098074
 H         -3.0631922925        2.8745869353        0.3711805766
 C         -4.5051204896        3.6744890285       -1.0208089739
 H         -5.5938720510        3.7076993058       -0.9667762078
 H         -4.1735034969        4.6178465630       -1.4596704506
 C         -4.0788468434        2.5622786119       -1.9809484903
 H         -4.3666078732        2.8591815357       -2.9929291635
 H         -2.9906150968        2.4620890253       -1.9661095359
 C         -4.6930505540        1.1815864610       -1.7178389501
 H         -4.4628546162        0.5466022337       -2.5781335116
 H         -5.7781820637        1.2704090599       -1.6364632462
 H         -5.6966214246        3.8271451885        1.5781485461
 H         -4.3769718566        2.9871307930        2.4025289130
 H         -6.0923909351        1.3715973968        2.0136568676
 H         -6.2814847867        1.8509897710        0.3163327104
 O         -4.0279391156        0.0628720000        1.8158249047
 C         -3.0264303793       -0.8786638965        1.6676554653
 O         -2.6294779640       -1.3709713751        2.7456326251
 O         -2.6948730974       -0.7555926779       -1.9408808146
 C         -1.4718527895       -2.2443864031        0.3130103153
 C         -0.2101714237       -1.6330715793       -0.2465063493
 C          0.1292541164       -1.5593642530       -1.5922302139
 C          1.3041945058       -0.9430334929       -1.9892144437
 C          2.1640675463       -0.3775636157       -1.0664251225
 C          1.8333023921       -0.4317241652        0.2808621566
 C          0.6614855805       -1.0593320077        0.6752038368
 H          0.4083487836       -1.0946105021        1.7281967263
 N          2.6890086400        0.1585013709        1.2299763463
 S          4.2989075477       -0.3266170478        1.2310245438
 O          4.4402520322       -1.6775364251        0.7388731893
 O          4.7688673982       -0.0785700333        2.5764931581
 C          5.0933602143        0.8141995220        0.1188371073
 C          5.0244574613        2.1625728652        0.4097576852
 C          5.6411006082        3.0634051715       -0.4436979263
 C          6.3145740528        2.6030578132       -1.5655322938
 C          6.3788056599        1.2457346189       -1.8409863064
 C          5.7632542873        0.3393137781       -0.9916977933
 H          5.7829345059       -0.7244327702       -1.1676769109
 H          6.9040091430        0.8899634962       -2.7127811021
 H          6.7929879488        3.3065890260       -2.2284898183
 H          5.5943587647        4.1195672261       -0.2321714562
 H          4.4959079506        2.4779783393        1.2939029234
 H          2.3193470197        0.1408966824        2.1698773912
 H          3.0760207277        0.1057691641       -1.3765432287
 H          1.5480794937       -0.8980181914       -3.0397945012
 H         -0.5353775025       -1.9508644612       -2.3407750590
 H         -1.2544040000       -2.4692296925        1.3688020585
 C         -1.9795559329       -3.5621189223       -0.2603781753
 C         -2.3416955730       -3.8340896537       -1.6882303046
 C         -1.1362897588       -4.4883021245       -1.0847232153
 H         -1.1814975931       -5.5456957343       -0.8697418254
 H         -0.1594685371       -4.1435682800       -1.3863332212
 H         -3.2167256028       -4.4439107009       -1.8651477695
 H         -2.2230177831       -3.0447870158       -2.4106041352
 H         -2.6298101556       -4.0397910858        0.4695952690
