  62
        -98.94707411
 C          1.1060342203        1.7345593594        0.4327052109
 C          1.8559088604        1.2401564392       -0.6651407189
 C          2.8443051195        0.1939401484       -0.3491849188
 C          2.9788390888       -0.2367595519        0.9169969211
 C          3.9152262079       -1.3189981427        1.3684055012
 C          3.2428331370       -2.6979442122        1.3429723006
 C          2.5454239972       -3.0285857915        0.0231526403
 H          2.1653636165       -4.0500223112        0.1017441100
 H          1.6757322477       -2.3812999208       -0.1106035298
 C          3.4392359877       -2.9112894418       -1.2189137393
 H          4.4910075276       -2.9336936426       -0.9286690290
 H          3.2587611974       -3.7767935415       -1.8599632896
 C          3.1665369588       -1.6678133214       -2.0679915891
 H          2.0912903090       -1.5855859106       -2.2485417695
 H          3.6530160491       -1.8030079415       -3.0383370790
 C          3.6684486496       -0.3393985719       -1.4865082687
 H          3.6069820703        0.4127561584       -2.2788316085
 H          4.7152651794       -0.4397531626       -1.1891029484
 H          2.4989652567       -2.7384469719        2.1420103404
 H          4.0042670764       -3.4529113428        1.5486201407
 H          4.7937105082       -1.3207469731        0.7259173615
 H          4.2249451878       -1.0965433531        2.3912512013
 O          2.2420187088        0.2573312383        1.9444531710
 C          1.2923234996        1.2422795190        1.7270981009
 O          0.6864962195        1.5977260892        2.7582812708
 O          1.7298696410        1.6398809195       -1.8522686989
 C          0.0297965111        2.7977765402        0.3011272908
 C         -1.3107774692        2.2117957612       -0.0841140698
 C         -2.4887676589        2.8116474019        0.3503627200
 C         -3.7186321792        2.2796500728        0.0106247795
 C         -3.8005897997        1.1193965030       -0.7394290308
 C         -2.6311507400        0.5101842123       -1.1754399106
 C         -1.3998607097        1.0726604514       -0.8679735700
 H         -0.5084902699        0.5997658409       -1.2471071699
 N         -2.6655992205       -0.6896106675       -1.9095057109
 S         -1.6893817616       -1.9476780983       -1.3853814808
 O         -0.3131074513       -1.6874828391       -1.7117958603
 O         -2.2734388122       -3.1300280177       -1.9812303713
 C         -1.9279479122       -1.9720905885        0.3808461591
 C         -1.0385814420       -1.3051972593        1.1973585995
 C         -1.2901348424       -1.2396669994        2.5584568195
 C         -2.4215199730       -1.8490660188        3.0780927790
 C         -3.3006714832       -2.5285125880        2.2474675585
 C         -3.0591450128       -2.5845722279        0.8847268786
 H         -3.7157936529       -3.1029714573        0.2048504882
 H         -4.1758505636       -3.0058460275        2.6579463381
 H         -2.6159863133       -1.7921375889        4.1374579089
 H         -0.6077976222       -0.6930428800        3.1915658498
 H         -0.1657520515       -0.8406890698        0.7657977799
 H         -3.5977965407       -1.0281469268       -2.1024917813
 H         -4.7587010799        0.6877800437       -0.9853978312
 H         -4.6236551490        2.7595876733        0.3497389493
 H         -2.4347599485        3.6968612317        0.9652197902
 H         -0.0818104190        3.2327544300        1.3048018109
 C          0.4021703322        3.9126535402       -0.6591762088
 C         -0.0664069370        5.3110078204       -0.3977421586
 C          1.3798796527        4.9599903794       -0.2216345382
 H          2.0982693232        5.3240642991       -0.9403570279
 H          1.7685337223        4.8879474089        0.7841489819
 H         -0.3479965463        5.9232125408       -1.2405918986
 H         -0.6484179972        5.4927406006        0.4927698312
 H          0.4594439823        3.5833123003       -1.6887351489
