  62
        -98.93807064
 C         -2.5346561528       -0.2713035855        0.1218859620
 C         -2.2941476306        0.6841264499        1.1432299465
 C         -2.0879058880        2.0767953652        0.7237076361
 C         -2.1617673918        2.3847735042       -0.5817884409
 C         -2.0055617709        3.7345059060       -1.2357006090
 C         -0.8455060597        4.6179329534       -0.7553443129
 C          0.4129973661        3.8605875261       -0.3049237753
 H          0.3623002321        2.8137692818       -0.6139069061
 H          1.2827755763        4.2952614501       -0.8028088336
 C          0.6503636601        3.9441608879        1.2053675527
 H          0.4651113750        4.9701969385        1.5322593101
 H          1.7014094939        3.7200400757        1.4034554209
 C         -0.1853012513        2.9904003222        2.0572973821
 H          0.1410545925        1.9610309936        1.8831330559
 H          0.0081710973        3.2178287486        3.1084197665
 C         -1.7021670719        3.0382133355        1.8104844129
 H         -2.2033742016        2.6885863613        2.7171270285
 H         -2.0369999650        4.0494911770        1.5934639381
 H         -1.1866079235        5.2534925097        0.0612675434
 H         -0.5916473541        5.2803981770       -1.5848729811
 H         -1.8836787663        3.5201843399       -2.3002845741
 H         -2.9454161130        4.2829446230       -1.1203298748
 O         -2.4459507355        1.4483958509       -1.5268474248
 C         -2.5659934106        0.1026254808       -1.2201591297
 O         -2.7118598777       -0.6201188938       -2.2295820951
 H         -0.8093808023       -1.7526114584       -1.4579321875
 C         -0.3559460310       -2.0816025550       -0.5336537515
 C         -1.1328739612       -2.1911609427        0.6114099218
 C         -0.5229659263       -2.6072197108        1.7882973635
 C          0.8348177235       -2.8777771801        1.8229240924
 C          1.6159812630       -2.7023361738        0.6938116316
 C          1.0095199159       -2.2986962495       -0.4876751551
 N          1.8246682180       -1.9870135435       -1.6148798028
 S          2.1971950951       -0.3348118800       -1.5836724247
 O          1.0429096566        0.4697344408       -1.2475385953
 O          2.8246662474       -0.0464961676       -2.8554362442
 C          3.3964290998       -0.2542964124       -0.2743895551
 C          4.6813747834       -0.6961169805       -0.5224679803
 C          5.6049609903       -0.6760700704        0.5103701100
 C          5.2281839216       -0.2210962979        1.7655024260
 C          3.9339009441        0.2192225555        1.9977018800
 C          3.0057771648        0.2018076557        0.9685729523
 H          1.9868841892        0.5310664468        1.1026306777
 H          3.6399483977        0.5715478218        2.9733438798
 H          5.9474351494       -0.2086028711        2.5691137197
 H          6.6126855516       -1.0164734296        0.3348699360
 H          4.9269987052       -1.0370850211       -1.5144497462
 H          1.3507159997       -2.1717460865       -2.4902346065
 H          2.6812632677       -2.8644440960        0.7182874040
 H          1.2943948826       -3.1962927222        2.7456704145
 H         -1.1145174065       -2.6828429698        2.6885196653
 C         -2.5691719148       -1.7242261972        0.5751710377
 H         -2.9437906552       -1.7066170509        1.6076143038
 C         -3.4491653939       -2.6430596807       -0.2424149255
 C         -3.9255763127       -3.9234670809        0.3741644931
 C         -4.8908570179       -2.8030801285        0.1323344625
 H         -5.6172981854       -2.9042014107       -0.6596459640
 H         -5.2500865457       -2.2454250545        0.9848009137
 H         -3.9894951535       -4.8009726352       -0.2505044768
 H         -3.6331026941       -4.1278528214        1.3928177505
 H         -3.2095414397       -2.6494044855       -1.2974043808
 O         -2.2506339104        0.3774784320        2.3646997672
