  62
        -98.94380396
 C          1.6626927505        0.8628669802        0.5921003297
 C          2.7173766905        1.1931580093       -0.2941028606
 C          4.0403953704        0.6484197993        0.0501183797
 C          4.1807131003       -0.1160867099        1.1472293302
 C          5.4561148702       -0.7820329999        1.5739617206
 C          5.5755633499       -2.1920973403        0.9788001916
 C          5.3092643197       -2.2543824813       -0.5253583684
 H          5.4526079795       -3.2912678516       -0.8373671676
 H          4.2618658398       -2.0056435513       -0.7124378384
 C          6.2066686599       -1.3377240321       -1.3684943991
 H          6.5642763197       -1.8987032828       -2.2345021987
 H          7.0826449200       -1.0428469219       -0.7895723094
 C          5.5083787201       -0.0867804024       -1.9045499399
 H          4.5797521500       -0.3719399225       -2.4052493096
 H          6.1588338201        0.3698697870       -2.6552253203
 C          5.1833285404        0.9917798184       -0.8638233806
 H          6.0793330205        1.2282218187       -0.2865539409
 H          4.8742558105        1.8910983081       -1.4042621112
 H          6.5775211298       -2.5710256004        1.1887565918
 H          4.8546515098       -2.8420550898        1.4805395821
 H          6.3008669103       -0.1717599203        1.2601367401
 H          5.4574341203       -0.8560678891        2.6628116606
 O          3.1479138803       -0.4071663691        1.9793815105
 C          1.8738560404        0.0687321409        1.7235148003
 O          1.0242899904       -0.2693479083        2.5731764306
 H         -1.4509035998       -0.7410572191        0.7128935011
 C         -1.2850835499       -0.5267452599       -0.3326969690
 C         -0.4266202297        0.5002785097       -0.7007573398
 C         -0.1914552898        0.7246489687       -2.0534355100
 C         -0.8037194400       -0.0653627818       -3.0088158094
 C         -1.6781692102       -1.0727148314       -2.6402243486
 C         -1.9161566301       -1.3076273504       -1.2914605884
 N         -2.8025770803       -2.3158142599       -0.8840666276
 S         -3.8013005401       -2.0436699088        0.4271762422
 O         -3.0905820101       -2.2676115181        1.6604441823
 O         -4.9413095503       -2.9053309187        0.1935851029
 C         -4.2990199298       -0.3342437188        0.2989073511
 C         -4.0382863795        0.5361411919        1.3369933204
 C         -4.4336442593        1.8596067119        1.2179549195
 C         -5.0735483693        2.2883551012        0.0651377793
 C         -5.3296104095        1.4009376305       -0.9688031601
 C         -4.9425160998        0.0760307105       -0.8523299892
 H         -5.1390339000       -0.6414302300       -1.6321066286
 H         -5.8285725796        1.7374026000       -1.8630645103
 H         -5.3726371091        3.3205003212       -0.0260001214
 H         -4.2381383091        2.5498698624        2.0235597390
 H         -3.5281515795        0.1649054624        2.2122112807
 H         -3.2861326105       -2.7863265404       -1.6348310673
 H         -2.1648439304       -1.6809230818       -3.3873843681
 H         -0.6064778001        0.1119432274       -4.0550946295
 H          0.4977391904        1.5002348084       -2.3457579906
 C          0.2311889205        1.3310182403        0.3752031395
 H         -0.2919834794        1.1197392011        1.3176565797
 C          0.1273711308        2.8165421002        0.0893742485
 C         -1.2194789690        3.4682246905        0.1637091382
 C         -0.1881297589        3.7560194510        1.2121344279
 H          0.2859423213        4.7261211209        1.2198193071
 H         -0.3248796189        3.3304471517        2.1959942282
 H         -2.0580541791        2.8429568908        0.4320447687
 H         -1.4559971789        4.2424156800       -0.5494814624
 H          0.8168542208        3.1622965995       -0.6686256218
 O          2.5878892805        1.9099026487       -1.3203846911
