  62
        -98.93571517
 C         -1.8256664568       -0.5882282129       -0.8718968952
 C         -2.2493928960       -0.0270623463        0.3564120482
 C         -3.6997841156       -0.0414454871        0.5988469547
 C         -4.5242072896       -0.5846918243       -0.3148244019
 C         -6.0182110952       -0.7390875471       -0.2021279298
 C         -6.8396369055        0.5639831882       -0.1648268467
 C         -7.1592986039        1.0692697148        1.2474846356
 H         -8.1835078090        1.4476329525        1.2611742444
 H         -7.1286640042        0.2251096850        1.9375148026
 C         -6.2607451645        2.1926415230        1.7735468205
 H         -6.5687335948        3.1372924128        1.3194567734
 H         -6.4261321786        2.2764444385        2.8498625207
 C         -4.7633238207        2.0267947180        1.5137812330
 H         -4.2308068729        2.7787172567        2.0993513404
 H         -4.5468292369        2.2421421576        0.4647926903
 C         -4.2034404968        0.6293766987        1.8436498364
 H         -3.3473715473        0.7190767919        2.5153850238
 H         -4.9604415939        0.0165710110        2.3309103908
 H         -6.3260001912        1.3344464459       -0.7391226724
 H         -7.7825812060        0.3568991976       -0.6734385806
 H         -6.3156911558       -1.3223203456       -1.0760721840
 H         -6.2422242402       -1.3333958540        0.6867416692
 O         -4.0711635328       -1.1228272562       -1.4812995289
 C         -2.7219504030       -1.1289869067       -1.7925895700
 O         -2.4496453944       -1.6448346395       -2.8963997629
 H          2.1630630910       -0.0932279325       -0.2331574771
 C          1.7139416600       -0.9699459507        0.2030795330
 C          0.4414926506       -1.3675490905       -0.1789351257
 C         -0.0956382679       -2.5170377758        0.3943362810
 C          0.6105253233       -3.2315253016        1.3420123938
 C          1.8797095196       -2.8309753664        1.7204617527
 C          2.4347164781       -1.6978213556        1.1404726691
 N          3.7183789373       -1.2630485179        1.5021181197
 S          4.7700231499       -0.7068063974        0.3258719088
 O          4.5541148631       -1.3683072550       -0.9396284137
 O          6.0861569851       -0.8669993404        0.9080267121
 C          4.4232475971        1.0331177726        0.1794549696
 C          4.1039023974        1.7553624249        1.3121521583
 C          3.8844491820        3.1186227705        1.1956569552
 C          3.9967880342        3.7357352996       -0.0411202605
 C          4.3244670424        2.9975412899       -1.1677494162
 C          4.5400243614        1.6323325051       -1.0589957333
 H          4.7839432756        1.0186057742       -1.9114825034
 H          4.4113367888        3.4780238460       -2.1295000544
 H          3.8265151536        4.7973266971       -0.1279238922
 H          3.6260816530        3.6953935393        2.0691484089
 H          4.0220929686        1.2451310565        2.2572114509
 H          4.1902741574       -1.8466815205        2.1774619786
 H          2.4353272480       -3.3909046530        2.4574581816
 H          0.1732140351       -4.1140006256        1.7846126048
 H         -1.0823354428       -2.8407927245        0.0914891458
 C         -0.3500303498       -0.6141243975       -1.2210834265
 H         -0.2698272437       -1.1697720205       -2.1678957707
 C          0.1491893840        0.7996918590       -1.4432058969
 C          1.2345488070        1.0786630073       -2.4375458589
 C         -0.1769951752        1.4832679350       -2.7359285452
 H         -0.4283416377        2.5328914110       -2.7162062338
 H         -0.7308210141        0.9145346201       -3.4691253602
 H          1.9508467090        1.8537908109       -2.2101457267
 H          1.6498313460        0.2392311451       -2.9753973172
 H          0.1183028806        1.3956195589       -0.5381668671
 O         -1.4605856600        0.4516848122        1.2114579765
