  62
        -98.93700211
 C         -2.2137072284       -1.2483152920        0.1950249376
 C         -2.4187060126       -0.1221015987       -0.6371810509
 C         -3.3968993415        0.8697793725       -0.1579941113
 C         -3.9925290235        0.6917075179        1.0342940732
 C         -5.0543901221        1.5750481832        1.6248295993
 C         -6.4137429410        1.2849798649        0.9566748748
 C         -6.9738242831        2.4465197977        0.1352895409
 H         -7.3773882363        3.1997908343        0.8151101838
 H         -7.8049837622        2.0574978564       -0.4566318529
 C         -5.9804459103        3.1441508389       -0.7988814007
 H         -5.3623654826        3.8375981227       -0.2265370694
 H         -6.5676110346        3.7505772858       -1.4918035765
 C         -5.0607225346        2.2219902975       -1.6095627535
 H         -4.9537392033        2.6443111983       -2.6108091132
 H         -5.5111124995        1.2361896459       -1.7270589145
 C         -3.6397984028        2.0673991205       -1.0351131126
 H         -3.3607411376        2.9771737480       -0.4957254171
 H         -2.9375766083        1.9537268333       -1.8663796174
 H         -7.1460958943        1.0234765432        1.7218405304
 H         -6.3000063758        0.4068077602        0.3177032028
 H         -4.7779185494        2.6192019743        1.4960681325
 H         -5.1008307187        1.3555505994        2.6917135267
 O         -3.7425795871       -0.3831317576        1.8251490552
 C         -2.8635810808       -1.3737133270        1.4275938623
 O         -2.7468162467       -2.3085231470        2.2443779111
 O         -1.8284779607        0.0711384609       -1.7351894648
 C         -1.2673223766       -2.3888523205       -0.1541807793
 C          0.1614936133       -2.0029610524        0.1465685203
 C          0.8549313947       -2.6050638702        1.1900996859
 C          2.1551502411       -2.2305926181        1.4801436033
 C          2.7884669632       -1.2487971790        0.7391262014
 C          2.0988270627       -0.6314167846       -0.2958919623
 C          0.7995186847       -1.0167398739       -0.5920707774
 H          0.2619280983       -0.5208274053       -1.3865814942
 N          2.7279875750        0.3766875320       -1.0495112439
 S          3.4371932083        1.6442569264       -0.2059578698
 O          2.7945163472        1.8595839443        1.0706926011
 O          3.4376495792        2.7628977286       -1.1235105888
 C          5.1158933279        1.0999467305        0.0365100712
 C          5.6526277853        1.0597194471        1.3083611432
 C          6.9644605606        0.6408839718        1.4691810202
 C          7.7122191198        0.2728324119        0.3612293491
 C          7.1590916925        0.3213986916       -0.9098490785
 C          5.8489501605        0.7401223903       -1.0775218117
 H          5.3825977977        0.7960471435       -2.0468874271
 H          7.7436908112        0.0345426102       -1.7690460853
 H          8.7321747985       -0.0536951629        0.4891786379
 H          7.3959776064        0.6029131479        2.4565482294
 H          5.0312627404        1.3499946417        2.1407417021
 H          2.1443610037        0.7336787220       -1.7933542658
 H          3.7993020683       -0.9493786146        0.9633703115
 H          2.6812333921       -2.7072480109        2.2932202474
 H          0.3589656736       -3.3574329578        1.7862150082
 H         -1.5386471735       -3.2103209706        0.5221118484
 C         -1.4251085337       -2.8743951830       -1.5818287640
 C         -0.9546487903       -4.2521034138       -1.9341369163
 C         -2.4219306621       -3.9514296386       -1.8812073203
 H         -2.9741228980       -3.8984530985       -2.8075063653
 H         -2.9947896803       -4.3458733410       -1.0542940554
 H         -0.4963992169       -4.4084987522       -2.8984643474
 H         -0.5326725302       -4.8530453553       -1.1428935230
 H         -1.3030759025       -2.0943432750       -2.3211374222
