  62
        -98.94091064
 C         -2.3094839763       -0.4065512492        0.2563308544
 C         -3.5535285685       -0.9274878563        0.6855853466
 C         -4.6908807384        0.0000249781        0.6335303945
 C         -4.4905955113        1.2614285998        0.2094534778
 C         -5.5693061397        2.2933912252        0.0544083016
 C         -6.1653016639        2.2658624157       -1.3600832570
 C         -6.5603784107        0.8682836374       -1.8372777914
 H         -6.9955974587        0.9760174148       -2.8331779614
 H         -5.6587674704        0.2608187127       -1.9452210860
 C         -7.5542808672        0.1414864816       -0.9205268871
 H         -8.3295778775       -0.3165623879       -1.5382256409
 H         -8.0457318127        0.8599551272       -0.2636144434
 C         -6.9380535863       -0.9765607469       -0.0777331301
 H         -6.3645974472       -1.6475342573       -0.7222620775
 H         -7.7517992492       -1.5601805900        0.3607822139
 C         -6.0305868220       -0.5214747354        1.0720782885
 H         -6.5520209142        0.2191398977        1.6816687989
 H         -5.8212391485       -1.3954484109        1.6957726928
 H         -7.0392249673        2.9195371405       -1.3789104286
 H         -5.4244773017        2.6679951691       -2.0551089019
 H         -6.3484650685        2.1104065675        0.7917736185
 H         -5.1323286343        3.2767211885        0.2358063933
 O         -3.2759125993        1.7320830265       -0.1753088727
 C         -2.1565555967        0.9123211086       -0.1700434983
 O         -1.1101422322        1.4691260265       -0.5550543549
 H          1.5965163824       -1.0257849159       -0.3016578399
 C          1.3216234815       -0.6591532418        0.6723348670
 C          0.0070782942       -0.7251372678        1.1065768462
 C         -0.3001443924       -0.2481967327        2.3786184233
 C          0.6785412009        0.3053992139        3.1800178994
 C          1.9848500485        0.3935712076        2.7320710474
 C          2.3074675762       -0.0980079267        1.4730186986
 N          3.6413051410       -0.0713838956        1.0273668850
 S          4.0009229619        0.1800618646       -0.6017689680
 O          3.4247240034        1.4224613693       -1.0660785357
 O          3.6624330702       -1.0049678631       -1.3480140135
 C          5.7755261305        0.3270385277       -0.4911584167
 C          6.5254954074       -0.8275499793       -0.3689147539
 C          7.9024330309       -0.7231174662       -0.2539325479
 C          8.5037744386        0.5268571743       -0.2624177559
 C          7.7386140593        1.6764517424       -0.3880174491
 C          6.3604958779        1.5789380617       -0.5019002569
 H          5.7261710901        2.4442653289       -0.6098790569
 H          8.2088738036        2.6465762347       -0.3979217898
 H          9.5758026727        0.6054962517       -0.1737898086
 H          8.5009781669       -1.6146922474       -0.1588649997
 H          6.0150828924       -1.7763321771       -0.3761385882
 H          4.2242656978        0.5188177170        1.6061643291
 H          2.7481610105        0.8358880116        3.3542260709
 H          0.4223206428        0.6795961888        4.1599589855
 H         -1.3230115894       -0.3083318022        2.7254837236
 C         -1.0942357554       -1.3146980277        0.2607766630
 H         -1.4290646166       -2.2494482740        0.7362584461
 C         -0.6645335293       -1.6204801973       -1.1587966305
 C          0.0036437707       -2.9216326038       -1.4842117188
 C         -1.4022988520       -2.6677769241       -1.9358474130
 H         -1.5868635907       -2.4964780704       -2.9858228423
 H         -2.2031007516       -3.1862694395       -1.4288286818
 H          0.1567035744       -3.6187087612       -0.6742072243
 H          0.7945447899       -2.9216130094       -2.2194759862
 H         -0.3415917031       -0.7339943206       -1.6957974180
 O         -3.7029837839       -2.1091661540        1.0982997513
