  62
        -98.94436394
 C         -2.1874208602       -1.2594387817        0.2436663862
 C         -2.2693914062       -0.5164347782       -0.9590398518
 C         -3.0432490665        0.7308084317       -0.8899436923
 C         -3.6330798203        1.0990419940        0.2609888931
 C         -4.4489296747        2.3432292241        0.4840436115
 C         -3.6075964408        3.5875649785        0.8011034279
 C         -2.8324011510        4.1686253355       -0.3824739402
 H         -3.5144962041        4.3289721697       -1.2179925334
 H         -2.4612754502        5.1478805013       -0.0737163266
 C         -1.6435842651        3.3132497314       -0.8434020326
 H         -1.3921614706        2.5905802534       -0.0635701362
 H         -0.7688656921        3.9512034720       -0.9910021431
 C         -1.8784970759        2.5560016706       -2.1500662040
 H         -2.0231947506        3.2665389567       -2.9668931419
 H         -0.9835078180        1.9688186904       -2.3734267301
 C         -3.0774914243        1.5990696677       -2.1122257792
 H         -4.0090605278        2.1627353617       -2.1527253596
 H         -3.0249679436        0.9471100469       -2.9876137360
 H         -2.9135853944        3.3420357851        1.6081496318
 H         -4.2896126259        4.3559260143        1.1720531480
 H         -5.0731229032        2.5361736786       -0.3887589216
 H         -5.0985193717        2.1401760462        1.3380948539
 O         -3.5578544484        0.3446895557        1.3881124163
 C         -2.8296132728       -0.8313232417        1.4118464761
 O         -2.8337268411       -1.4078470023        2.5172247679
 H          0.2597350314       -1.4491919946       -1.4416875639
 C          0.7786827117       -1.7171634286       -0.5336013606
 C          0.0699122261       -2.2989241168        0.5077022078
 C          0.7488350173       -2.6136071421        1.6792350564
 C          2.1057431297       -2.3658673536        1.7961683560
 C          2.8107727144       -1.7912302746        0.7537080661
 C          2.1361201023       -1.4562661523       -0.4136112648
 N          2.8283594846       -0.8473323796       -1.4724256313
 S          3.9541630048        0.3332249166       -1.1170065867
 O          3.9850480726        1.1937673892       -2.2786325728
 O          5.2073199581       -0.2881324864       -0.7650149388
 C          3.3193807138        1.2223302527        0.2958417652
 C          4.1011370505        1.3402540566        1.4272853877
 C          3.6066611631        2.0380657185        2.5173090687
 C          2.3429955898        2.6039266110        2.4570328275
 C          1.5706092556        2.4792349132        1.3124659281
 C          2.0595471202        1.7824035434        0.2194042900
 H          1.4763856780        1.6719935846       -0.6816067438
 H          0.5879745681        2.9211898378        1.2674323273
 H          1.9549548676        3.1462366284        3.3047664281
 H          4.2056931402        2.1370321033        3.4080861915
 H          5.0773545391        0.8831150117        1.4306330342
 H          2.2371102111       -0.5824528673       -2.2463806589
 H          3.8697813341       -1.6024916121        0.8244222860
 H          2.6210694932       -2.6220911268        2.7091142834
 H          0.2023817192       -3.0461825774        2.5045986973
 C         -1.4115586061       -2.5623324695        0.3745170698
 H         -1.7555790245       -3.0162897083        1.3130684229
 C         -1.6926498531       -3.5341117422       -0.7556326371
 C         -1.4217511631       -4.9916015060       -0.5419802329
 C         -2.8336074701       -4.4956381595       -0.6268472031
 H         -3.4129908614       -4.7287651100       -1.5076258487
 H         -3.4174711857       -4.4596733684        0.2816657795
 H         -1.0488882492       -5.2946076125        0.4247757416
 H         -1.0283463013       -5.5683782903       -1.3649394607
 H         -1.4988627364       -3.1242840333       -1.7378789245
 O         -1.7317006955       -0.8472731800       -2.0506580370
