  62
        -98.93417400
 C         -2.1379371038       -0.8255645913        0.2496633777
 C         -2.9905649514       -0.0721724430        1.0913844431
 C         -3.8954508881        0.8980492923        0.4452473124
 C         -3.8213017476        1.0575743170       -0.8891310740
 C         -4.6603776726        1.9448326352       -1.7694686011
 C         -6.0721806785        1.3825936288       -2.0039265345
 C         -6.7578126999        0.8213896370       -0.7608294407
 H         -7.6935081061        0.3550194395       -1.0801590957
 H         -6.1349067203        0.0343848089       -0.3315717379
 C         -7.0929519347        1.8482233610        0.3182475267
 H         -7.6485210159        1.3263535361        1.1016549610
 H         -7.7518370779        2.6100680902       -0.1042902697
 C         -5.8982882341        2.5475390367        0.9698812311
 H         -5.4930376870        3.3188370870        0.3203587907
 H         -6.2677860629        3.0581074765        1.8640945568
 C         -4.7868795939        1.6110060025        1.4335128128
 H         -4.1093636398        2.1716999322        2.0895033863
 H         -5.2183550365        0.8295953418        2.0696942094
 H         -6.6892492255        2.1711877868       -2.4376087647
 H         -5.9955869644        0.5735504686       -2.7343658904
 H         -4.1469129295        2.0071011572       -2.7314731367
 H         -4.7059701643        2.9470955140       -1.3534728434
 O         -2.9368745237        0.3573032016       -1.6542311500
 C         -2.0779957356       -0.5917435566       -1.1243875093
 O         -1.3321336920       -1.1257651805       -1.9651934405
 O         -3.0018136151       -0.2020471414        2.3462596332
 C         -1.2241636612       -1.8453351743        0.9022615354
 C          0.1940531066       -1.6893290196        0.4105595476
 C          0.9734370979       -2.7458623433       -0.0406260308
 C          2.2804582857       -2.5323724259       -0.4440185505
 C          2.8369650287       -1.2679333265       -0.4124333967
 C          2.0665624927       -0.2021197627        0.0347668972
 C          0.7642727755       -0.4218859241        0.4520342008
 H          0.1681449037        0.4114776015        0.8069172995
 N          2.6241079466        1.0932607453        0.0532859376
 S          3.9759681723        1.3150356453        1.0291179718
 O          3.9401504263        0.4450531320        2.1830884183
 O          4.0202952478        2.7357033868        1.3002147786
 C          5.3449027370        0.8776794425       -0.0205863740
 C          6.2211402426       -0.1148291539        0.3725298759
 C          7.2859337925       -0.4342167209       -0.4556794083
 C          7.4541188214        0.2410062320       -1.6549282724
 C          6.5658783573        1.2368418435       -2.0339218459
 C          5.5003469474        1.5625173427       -1.2099899426
 H          4.7891076087        2.3303651407       -1.4652704138
 H          6.6997246501        1.7590805637       -2.9675718938
 H          8.2821959888       -0.0103033433       -2.2987023649
 H          7.9772985774       -1.2079483359       -0.1629977756
 H          6.0447807318       -0.6168141875        1.3102270337
 H          1.9448924441        1.8153041313        0.2477585717
 H          3.8499988683       -1.0968823706       -0.7379134946
 H          2.8717104633       -3.3639703714       -0.7956331739
 H          0.5553325499       -3.7373861810       -0.0918766056
 H         -1.2328664509       -1.5693951405        1.9713018368
 C         -1.7367996085       -3.2766917272        0.8244323556
 C         -3.1844699879       -3.5735473793        0.5742085505
 C         -2.1620807731       -3.9000985001       -0.4703141821
 H         -1.9220064861       -4.9390002967       -0.6431161134
 H         -2.1148635829       -3.2856565936       -1.3554392626
 H         -3.6425406050       -4.3836640823        1.1217430837
 H         -3.8459807421       -2.7375390413        0.3979972846
 H         -1.2356845744       -3.9258918890        1.5358974134
