  62
        -98.94599318
 C         -2.0273775330       -0.1569515176        0.5116890587
 C         -1.6226651660        0.9841307378        1.2486476836
 C         -1.6234738304        2.2604341967        0.5259620551
 C         -1.9413452130        2.2831967460       -0.7807321167
 C         -1.9925022199        3.5031381867       -1.6601603000
 C         -0.6256755965        3.9109625010       -2.2268612608
 C          0.3184078127        4.5753229659       -1.2241551955
 H          1.1344872169        5.0186207928       -1.7983125324
 H         -0.2037622997        5.3873370560       -0.7160667178
 C          0.9136819578        3.6111513506       -0.1886627227
 H          0.8072752770        2.5851829815       -0.5517242931
 H          1.9861928654        3.7991355036       -0.0914186745
 C          0.3048951395        3.7292489461        1.2089446851
 H          0.7854743741        2.9923011424        1.8561636711
 H          0.5187653796        4.7207118630        1.6148890651
 C         -1.2106048332        3.4970751368        1.2678977005
 H         -1.4949773687        3.3647613865        2.3150471130
 H         -1.7373759366        4.3645719096        0.8700508773
 H         -0.1425797473        3.0233104064       -2.6441947070
 H         -0.8059293768        4.6109496284       -3.0464055719
 H         -2.6523222958        3.2564004954       -2.4948935097
 H         -2.4251973793        4.3389707806       -1.1089801119
 O         -2.2822897511        1.1630697623       -1.4666646694
 C         -2.3023114891       -0.0836396640       -0.8560076650
 O         -2.5938904102       -1.0134341782       -1.6318027833
 O         -1.2723872573        0.9385952292        2.4592293397
 C         -1.9886284924       -1.5054959998        1.2148230923
 C         -1.1782682664       -2.4540737347        0.3680591715
 C         -1.6382352632       -3.6631136472       -0.1324613086
 C         -0.8413711558       -4.4065302549       -0.9873655194
 C          0.4032830356       -3.9508902692       -1.3804110482
 C          0.8760349660       -2.7440543369       -0.8741382270
 C          0.1029308222       -2.0378192856        0.0282536712
 H          0.4682929868       -1.1036138377        0.4232584092
 N          2.1262550076       -2.2359173809       -1.2516092340
 S          2.4436786792       -0.5909557229       -1.2658431855
 O          1.2638176451        0.2084304692       -1.4959045743
 O          3.5083786115       -0.4491266186       -2.2376423494
 C          3.1189470819       -0.3001041317        0.3567572080
 C          2.4174976850        0.4258425034        1.2969082996
 C          2.9706165943        0.6107702432        2.5544723151
 C          4.2124620528        0.0707029554        2.8489319721
 C          4.9095736794       -0.6518771766        1.8918663271
 C          4.3596612679       -0.8412150965        0.6349628760
 H          4.8705522809       -1.3868778127       -0.1406179278
 H          5.8769059174       -1.0679540957        2.1227853531
 H          4.6377697545        0.2164557446        3.8292720088
 H          2.4204629851        1.1699727375        3.2949328969
 H          1.4514997297        0.8348093225        1.0423219829
 H          2.5713344419       -2.7162919429       -2.0189963748
 H          1.0005924408       -4.5128087317       -2.0823882196
 H         -1.2098845483       -5.3426400902       -1.3792750909
 H         -2.6295216072       -4.0067774707        0.1136474746
 H         -1.4269728290       -1.3097446067        2.1441083932
 C         -3.3422562295       -2.0535232833        1.6354291791
 C         -4.4927574889       -1.1332939679        1.9114228956
 C         -4.5336709969       -2.0496177960        0.7271641813
 H         -5.2034745881       -2.8966444904        0.7602920746
 H         -4.4098397275       -1.6289561110       -0.2579870266
 H         -5.1333502812       -1.3481196156        2.7535494912
 H         -4.3408714604       -0.0782534928        1.7338095411
 H         -3.2424051006       -2.9071180919        2.2990877561
