  62
        -98.93794433
 C          1.1527711809        1.5212484197       -0.6312127693
 C          2.3704944009        1.6453079691        0.0807695509
 C          3.4546747105        0.7088808287       -0.2606352991
 C          3.2380584302       -0.2284091011       -1.2016869193
 C          4.1408570699       -1.3024902114       -1.7729435393
 C          5.4749471997       -1.6331704220       -1.1101538492
 C          5.3558047292       -2.3157415822        0.2525321106
 H          4.9748465188       -3.3288349820        0.0995933905
 H          6.3555724992       -2.3974994327        0.6846722707
 C          4.4342003594       -1.6294387120        1.2580330206
 H          3.4118186495       -1.6166002915        0.8725462105
 H          4.4219147791       -2.2362782421        2.1678862806
 C          4.8378825100       -0.2101800422        1.6523166209
 H          4.1849571800        0.1009766780        2.4724855509
 H          5.8649831099       -0.2104094826        2.0229495810
 C          4.7177985305        0.8446241080        0.5401889110
 H          4.6731440009        1.8296547280        1.0142663712
 H          5.5893239606        0.8334834878       -0.1100020589
 H          5.9933609994       -2.3247576222       -1.7799439793
 H          6.0908970200       -0.7414466523       -1.0402985891
 H          3.5289156395       -2.2096390111       -1.8187098195
 H          4.3318828801       -1.0073949713       -2.8107610893
 O          2.0517934203       -0.3083229105       -1.8683366494
 C          0.9779193706        0.5334781699       -1.6001192194
 O         -0.0222637294        0.2933812204       -2.2978244996
 O          2.5511966011        2.5235342689        0.9683708910
 C          0.0386804512        2.4705004401       -0.2296742192
 C         -0.7180502491        1.9251795302        0.9564740606
 C         -1.1184422189        2.7574323102        1.9956087907
 C         -1.8154582892        2.2454052103        3.0757044105
 C         -2.1207533098        0.8982626005        3.1429631803
 C         -1.7112923700        0.0539835804        2.1154645902
 C         -1.0254665697        0.5740412603        1.0272910504
 H         -0.7048791798       -0.0881890797        0.2386406803
 N         -1.9699784906       -1.3171364895        2.1776016500
 S         -1.9256723808       -2.3160581393        0.8482413699
 O         -2.5703918314       -3.5278084191        1.3132173096
 O         -0.5720100608       -2.4731656398        0.3763284600
 C         -2.9578757304       -1.5486399687       -0.3855957901
 C         -4.1997254402       -1.0797184982       -0.0018601002
 C         -5.0267688499       -0.5137810878       -0.9575073502
 C         -4.6035643597       -0.4328174378       -2.2758208901
 C         -3.3576853799       -0.9130859082       -2.6447954201
 C         -2.5237775602       -1.4772821187       -1.6921881201
 H         -1.5375177003       -1.8332933191       -1.9420726400
 H         -3.0177948497       -0.8436441582       -3.6653767500
 H         -5.2476345695        0.0097989926       -3.0192150501
 H         -5.9954939398       -0.1360423474       -0.6728701302
 H         -4.5038961904       -1.1634448383        1.0287013298
 H         -2.5778671908       -1.6353964793        2.9154647699
 H         -2.6548740100        0.4956359006        3.9895406702
 H         -2.1209332390        2.9008224404        3.8768887306
 H         -0.8618216684        3.8058985201        1.9630258909
 H          0.5506131116        3.3873717498        0.1055215409
 C         -0.8835220185        2.8549058206       -1.3772095093
 C         -2.2681077587        2.3089027512       -1.5309375195
 C         -2.0709198681        3.7398021110       -1.1361516693
 H         -2.2908617377        4.5108862812       -1.8586097592
 H         -2.2952677181        4.0104124810       -0.1160278193
 H         -2.6069453487        2.0797712915       -2.5289088896
 H         -2.6247572790        1.6133074712       -0.7869642996
 H         -0.3306739883        3.0223123705       -2.2956273092
