  62
        -98.93880690
 C          1.9145196504        0.6272475739       -0.5048654515
 C          2.9823170929        1.3633462862        0.0586994576
 C          4.3326693491        0.8027367198       -0.1194136118
 C          4.4750962181       -0.3500181630       -0.7963793703
 C          5.7467190165       -1.1131234467       -1.0452933029
 C          5.9563677329       -2.1866642749        0.0361251473
 C          6.6880599978       -1.7044592314        1.2881639839
 H          6.6529562481       -2.5168690917        2.0176767574
 H          7.7378898504       -1.5286388912        1.0442385500
 C          6.1171871495       -0.4389077710        1.9334463666
 H          5.0272463656       -0.4949572882        1.9503637297
 H          6.4555964836       -0.4106254433        2.9710512012
 C          6.5638801253        0.8515769500        1.2303571746
 H          7.3807759690        0.6199282353        0.5471667536
 H          6.9673839847        1.5451227113        1.9710163634
 C          5.4578774067        1.6047582754        0.4759456074
 H          5.9136375463        2.2073712638       -0.3167523747
 H          4.9662331822        2.3066855314        1.1567984821
 H          6.5293534160       -3.0105650420       -0.3942112325
 H          4.9743377997       -2.5806900764        0.3107770568
 H          5.6267430807       -1.6103315729       -2.0101101624
 H          6.5966206125       -0.4395310306       -1.1015146872
 O          3.4182720929       -1.0289039291       -1.3218595110
 C          2.1180698458       -0.5700806948       -1.1899719563
 O          1.2601427493       -1.3023950092       -1.7178658753
 O          2.8143621035        2.4402469840        0.6924964699
 C          0.4996223226        1.1594464772       -0.3527969398
 C         -0.3301319390        0.1573860221        0.4097094791
 C          0.0463735939       -0.1539322859        1.7150453613
 C         -0.6510211044       -1.0936643456        2.4471831237
 C         -1.7457986126       -1.7378703127        1.8963977496
 C         -2.1308612284       -1.4352877578        0.5964632979
 C         -1.4284537810       -0.4860969447       -0.1363643285
 H         -1.7375991424       -0.2882771677       -1.1481991968
 N         -3.2215167690       -2.0960081518        0.0096360923
 S         -4.3689319683       -1.2628498734       -0.8720853187
 O         -5.4631696999       -2.1980778123       -1.0122534527
 O         -3.8019369860       -0.7549808754       -2.0943223381
 C         -4.8574707669        0.0797845529        0.1952749464
 C         -5.8076658531       -0.1692021642        1.1668291484
 C         -6.1536301325        0.8461528426        2.0431517317
 C         -5.5397813377        2.0853660319        1.9392113715
 C         -4.5871450459        2.3185270034        0.9596140376
 C         -4.2390300963        1.3077496430        0.0771797120
 H         -3.5053550903        1.4537380157       -0.6980227136
 H         -4.1117634659        3.2830269572        0.8783656414
 H         -5.8068021387        2.8754851747        2.6231605488
 H         -6.8974269362        0.6690242219        2.8031904476
 H         -6.2680018116       -1.1431953719        1.2050665954
 H         -3.6606650567       -2.7837274276        0.6039245562
 H         -2.2883959657       -2.4795698183        2.4626824408
 H         -0.3437033103       -1.3274918992        3.4553124493
 H          0.9049608439        0.3470185438        2.1411357655
 H          0.5967139341        2.0656505949        0.2626342936
 C         -0.0732252126        1.5463020407       -1.6987812898
 C         -1.1391690611        2.5959343713       -1.7846863533
 C          0.2490239535        2.8962584221       -2.2632599545
 H          0.4241797649        2.9818998381       -3.3252091293
 H          0.8664022363        3.5499646025       -1.6645289306
 H         -1.9216488909        2.4755473826       -2.5195990456
 H         -1.4599752728        3.0550998250       -0.8616209360
 H         -0.1166775842        0.7167208615       -2.3958280455
