  62
        -98.94014921
 C         -1.3679265569       -0.9322968050       -0.1358215378
 C         -2.4907423137       -0.9472656285        0.7282219442
 C         -3.5149198698        0.0966124669        0.5406005562
 C         -3.3242843795        1.0166313713       -0.4228760089
 C         -4.2322316276        2.1485006040       -0.8249748108
 C         -5.4433554825        1.6756244732       -1.6457914316
 C         -6.1248023212        0.4149406109       -1.1197226101
 H         -6.8862559478        0.1215091257       -1.8471384833
 H         -5.3931936153       -0.3935678294       -1.0718976469
 C         -6.8080326687        0.5623964459        0.2376004355
 H         -7.5666755798        1.3456407170        0.1733915748
 H         -7.3204077687       -0.3800345846        0.4471268513
 C         -5.8875168658        0.8743623030        1.4192465396
 H         -6.4662190065        0.7142446139        2.3337670099
 H         -5.5920921913        1.9202251810        1.4210425963
 C         -4.6561061297       -0.0202325451        1.5221821909
 H         -4.9713039064       -1.0695991093        1.4947166896
 H         -4.2062579768        0.1185061803        2.5129702430
 H         -5.1004274302        1.4687040017       -2.6624690557
 H         -6.1668543334        2.4912294705       -1.6935474282
 H         -4.5499934752        2.7005560768        0.0548467606
 H         -3.6348335791        2.8245820570       -1.4411432614
 O         -2.2275763055        0.9997975832       -1.2294678278
 C         -1.2245572909        0.0522151294       -1.1137604047
 O         -0.3011610334        0.2065885842       -1.9367758277
 O         -2.6439649707       -1.8193670736        1.6273084320
 C         -0.3336964616       -2.0177331389        0.0932805294
 C          0.7337774060       -1.5894604449        1.0749593232
 C          1.2387004526       -2.4951489027        2.0017358000
 C          2.2320136912       -2.1172175307        2.8861090773
 C          2.7480154787       -0.8342939236        2.8568333894
 C          2.2472113853        0.0813669515        1.9380590139
 C          1.2462108721       -0.3013375131        1.0553623214
 H          0.8549332510        0.4251368510        0.3615874548
 N          2.7350003953        1.3945898218        1.9056651825
 S          2.8800792871        2.2215827257        0.4586715327
 O          3.8063607123        3.2923715132        0.7662912351
 O          1.5837650300        2.6326122429       -0.0159544863
 C          3.6631605464        1.0629788228       -0.6475570811
 C          4.9900860863        0.7631628451       -0.4008978033
 C          5.6313529756       -0.1637547889       -1.2045674064
 C          4.9364148588       -0.7759457756       -2.2371996207
 C          3.6085873030       -0.4595786859       -2.4739085539
 C          2.9585365949        0.4684841362       -1.6730643876
 H          1.9216059666        0.7216988288       -1.8328569309
 H          3.0643465897       -0.9310181135       -3.2771821403
 H          5.4322665777       -1.5012720509       -2.8628673898
 H          6.6659243776       -0.4074588966       -1.0244835352
 H          5.4980412676        1.2725982136        0.4018804701
 H          3.5181687638        1.5723785036        2.5170313565
 H          3.5220649422       -0.5356469155        3.5467970210
 H          2.6106511718       -2.8275390002        3.6048822308
 H          0.8347655950       -3.4954373753        2.0376376462
 H         -0.8854523746       -2.8506562146        0.5519637404
 C          0.3289374373       -2.5211649250       -1.1748956960
 C          0.8340246529       -3.9299780873       -1.2390323126
 C         -0.3766430368       -3.5309706777       -2.0273037515
 H         -0.2969820306       -3.4422858548       -3.1001190070
 H         -1.3425194170       -3.8793855434       -1.6909599216
 H          1.7537872735       -4.1208037715       -1.7695455400
 H          0.6854676518       -4.5596786796       -0.3754775386
 H          0.9024262029       -1.7579817207       -1.6833944463
