  62
        -98.93445344
 C         -2.4720782979       -0.3989096255       -0.0989585511
 C         -2.1762104741       -1.4914135107       -0.9452012667
 C         -1.5301706092       -2.6426157268       -0.3084686068
 C         -1.2553599897       -2.6053182077        1.0082841604
 C         -0.5981968123       -3.6990694298        1.8058682755
 C          0.9338391835       -3.6863079406        1.7144741532
 C          1.5077769339       -4.2042122440        0.3949055320
 H          2.5735326711       -4.3791364831        0.5547742061
 H          1.0511552950       -5.1638668067        0.1486631590
 C          1.3435366334       -3.2340711258       -0.7830006660
 H          1.1399683551       -2.2294843034       -0.4048130943
 H          2.2820726498       -3.1700166693       -1.3399424354
 C          0.2547015271       -3.6170759099       -1.7855566959
 H          0.1956853118       -2.8216660924       -2.5337891571
 H          0.5340982813       -4.5421803040       -2.2963247679
 C         -1.1402117875       -3.8024472065       -1.1751750027
 H         -1.1790744389       -4.7307238110       -0.6048532071
 H         -1.8640151131       -3.8617679794       -1.9924927302
 H          1.2811455116       -2.6633516677        1.8799594909
 H          1.3162274879       -4.3105054755        2.5256356942
 H         -0.9783408519       -4.6699231849        1.4858038150
 H         -0.8841362651       -3.5372443528        2.8473143868
 O         -1.5753272406       -1.5447287361        1.7936534320
 C         -2.1507485768       -0.4023403188        1.2595203870
 O         -2.3406301972        0.5099068119        2.0847084390
 O         -2.4433232037       -1.5022767101       -2.1803615244
 C         -3.0718665053        0.8633753054       -0.7083324364
 C         -2.1741596862        2.0224573897       -0.3403632701
 C         -2.5269404287        3.2631749639        0.1702740257
 C         -1.5564271207        4.2108965514        0.4640537497
 C         -0.2138432957        3.9453486068        0.2895651834
 C          0.1564660056        2.7049602578       -0.2213866760
 C         -0.8168954241        1.7895450629       -0.5675365984
 H         -0.5094229928        0.8460865565       -0.9976306887
 N          1.5219353177        2.3574951433       -0.3326947384
 S          1.9585344867        0.7474181692       -0.4734907399
 O          1.7927111777        0.2696247864       -1.8319246497
 O          1.2992323757        0.0056783737        0.5703690863
 C          3.6980090698        0.8836861325       -0.1075578525
 C          4.6255053119        0.8312646310       -1.1298581520
 C          5.9703984317        0.9719458622       -0.8240892664
 C          6.3623344374        1.1638454080        0.4918470062
 C          5.4198157969        1.2117858142        1.5086296017
 C          4.0744768996        1.0712953736        1.2087168729
 H          3.3053831090        1.0941502230        1.9637359600
 H          5.7277257484        1.3580713199        2.5314180789
 H          7.4089493330        1.2739723300        0.7277694559
 H          6.7052505265        0.9314640379       -1.6119037886
 H          4.2736932204        0.6722936875       -2.1365319135
 H          2.0816787883        2.9774113775       -0.8986414892
 H          0.5399136822        4.6709597459        0.5495110868
 H         -1.8612431984        5.1687030465        0.8581314595
 H         -3.5531994048        3.5155617287        0.3650044962
 H         -2.9695260650        0.7202555917       -1.7992082060
 C         -4.5662342448        0.8698582142       -0.4252634283
 C         -5.2182807477        1.4805983244        0.7745262581
 C         -5.4887006186        2.0404798562       -0.5917707216
 H         -6.4579330680        1.8482580728       -1.0283278597
 H         -5.0758937565        2.9957980332       -0.8697827524
 H         -6.0022986160        0.9173453287        1.2597024909
 H         -4.5906864293        2.0171123150        1.4669809739
 H         -4.9770648475       -0.0871847709       -0.7418363757
