  62
        -98.93221673
 C          2.2549545093        1.1658470606        0.0356725488
 C          3.1746911695        0.6593548712        0.9881977490
 C          4.2163018392       -0.2627434593        0.5014344696
 C          4.2264883589       -0.6001263304       -0.8001558501
 C          5.1782777987       -1.5076047212       -1.5378198996
 C          5.5627052686       -2.8212124706       -0.8398443185
 C          7.0092460987       -2.8460707904       -0.3427169288
 H          7.3348307386       -3.8860586204       -0.2687924880
 H          7.6412387686       -2.3596605712       -1.0887148293
 C          7.2407340090       -2.1924658694        1.0185834406
 H          6.8133352891       -2.8241358187        1.8002879512
 H          8.3195444991       -2.1528613094        1.1865699504
 C          6.6686707293       -0.7818528292        1.1721173196
 H          7.2191587995       -0.2835486486        1.9728528191
 H          6.8338540692       -0.2020269599        0.2646110391
 C          5.1786981294       -0.7594284086        1.5453000998
 H          5.0232338896       -0.0953148179        2.4011462493
 H          4.8609070893       -1.7525861383        1.8751044607
 H          4.8755253387       -3.0198210699       -0.0189112782
 H          5.4425697283       -3.6287667812       -1.5639368979
 H          4.6837869584       -1.7230292619       -2.4879013893
 H          6.0797469287       -0.9388159115       -1.7797354002
 O          3.3153476488       -0.0996918210       -1.6816066004
 C          2.3184275490        0.7879573194       -1.3048673709
 O          1.5823600589        1.1355155588       -2.2485097610
 O          3.1344319797        0.9788178522        2.2067040088
 C          1.2136006596        2.1439824511        0.5497147382
 C         -0.0890984605        1.4596491916        0.8751137290
 C         -0.7241205902        1.6720576127        2.0929076889
 C         -1.9367349602        1.0649808331        2.3705560297
 C         -2.5397179305        0.2365869724        1.4411979505
 C         -1.9121163708        0.0159095913        0.2221234805
 C         -0.6960291608        0.6234675509       -0.0520525602
 H         -0.2194775210        0.4584634201       -1.0077199601
 N         -2.5228166811       -0.8251084694       -0.7315047987
 S         -4.0322123811       -0.3225613496       -1.2851652088
 O         -4.1926742815       -0.9386487807       -2.5838513982
 O         -4.1551138909        1.1165055704       -1.2349755299
 C         -5.1733079910       -1.0714970985       -0.1419676579
 C         -5.1637278112       -2.4474525284       -0.0208503268
 C         -6.0480707611       -3.0470002476        0.8615710138
 C         -6.9237055009       -2.2654240968        1.6009655034
 C         -6.9235139107       -0.8856447269        1.4645947622
 C         -6.0404602908       -0.2792157478        0.5845393416
 H         -5.9988572206        0.7896508721        0.4492550207
 H         -7.6054488505       -0.2800295764        2.0395359019
 H         -7.6108286008       -2.7350225562        2.2870056139
 H         -6.0515094612       -4.1195970375        0.9702724447
 H         -4.4698851414       -3.0165611690       -0.6169187965
 H         -1.9232263613       -1.0117042001       -1.5238919086
 H         -3.4836176906       -0.2394032373        1.6509862210
 H         -2.4178192400        1.2382118539        3.3208602896
 H         -0.2560368300        2.3119009832        2.8265604683
 H          1.6325695398        2.5202454118        1.4963231978
 C          1.0264495796        3.3446844304       -0.3696626728
 C         -0.2092702005        3.5985534699       -1.1753318527
 C          0.0921358698        4.4526376609        0.0174748465
 H          0.4045912699        5.4737362407       -0.1397236744
 H         -0.5153938900        4.3045070917        0.8974642367
 H         -0.0826601907        4.0160610391       -2.1629182031
 H         -1.0277166506        2.8976583101       -1.1101700420
 H          1.9619795995        3.6412960199       -0.8341006832
