  62
        -98.94482059
 C          1.8326011999        1.1090977196       -0.1488607608
 C          2.9891244501        1.1487091302        0.6764588989
 C          4.1992875200        0.5206747500        0.1383813391
 C          4.1750232798       -0.0226832007       -1.0916950006
 C          5.3331285997       -0.6721235611       -1.7988974904
 C          5.5462216499       -2.1451685708       -1.4242963895
 C          6.1158134402       -2.3840757899       -0.0253712695
 H          6.4173721503       -3.4323511099        0.0228243511
 H          7.0143458202       -1.7807589898        0.1076971700
 C          5.1294897704       -2.1016670093        1.1167229605
 H          4.1116338403       -2.0695282796        0.7205475807
 H          5.1637698806       -2.9209938389        1.8384054110
 C          5.4022679204       -0.8089902888        1.8862259597
 H          6.3630179905       -0.8848204984        2.4001922995
 H          4.6230588906       -0.6916437484        2.6437229497
 C          5.4121139102        0.4548053407        1.0161818889
 H          6.3201704801        0.4903323104        0.4146090387
 H          5.3934732402        1.3256147311        1.6759080484
 H          6.2401571498       -2.5698029812       -2.1534475694
 H          4.5949182800       -2.6730670810       -1.5250867290
 H          5.1158460695       -0.6167807917       -2.8678327704
 H          6.2456802897       -0.1094045109       -1.6002305709
 O          3.0574611897       -0.0228820513       -1.8618206104
 C          1.8586059897        0.5101918389       -1.4082098605
 O          0.9252633696        0.3783659283       -2.2274794302
 O          3.0075342202        1.6956573709        1.8107437186
 C          0.5798202700        1.7549561399        0.4180322390
 C         -0.3684521099        0.7402652802        1.0105960898
 C         -0.7913018596        0.8375488109        2.3307459598
 C         -1.6995839594       -0.0691312388        2.8503325305
 C         -2.2034246395       -1.0904672594        2.0651879613
 C         -1.7783762197       -1.2003720101        0.7477390512
 C         -0.8752440099       -0.2865126304        0.2269732705
 H         -0.5576315801       -0.3737723910       -0.8014154095
 N         -2.3009764298       -2.2270028207       -0.0691465080
 S         -3.9645396098       -2.1629306709       -0.2799170378
 O         -4.6095618896       -2.7181283403        0.8834869827
 O         -4.2301360900       -2.8344265417       -1.5323611573
 C         -4.3228818300       -0.4197388810       -0.4009093688
 C         -3.8846181703        0.2563896783       -1.5221723893
 C         -4.0837403304        1.6247672182       -1.5997599701
 C         -4.7090355203        2.2906327488       -0.5567437603
 C         -5.1423491300        1.5974763995        0.5624668902
 C         -4.9454777399        0.2285203795        0.6459405310
 H         -5.2635150997       -0.3492558500        1.4980855014
 H         -5.6272633699        2.1193998999        1.3713760499
 H         -4.8603474404        3.3569510488       -0.6179225710
 H         -3.7440335806        2.1644204777       -2.4695089704
 H         -3.4027922004       -0.2919705221       -2.3163835390
 H         -1.8468825600       -2.2693279012       -0.9711674381
 H         -2.9193282694       -1.8007837092        2.4462350218
 H         -2.0194253393        0.0204997818        3.8770977305
 H         -0.3967620796        1.6264119013        2.9539879793
 H          0.9365027700        2.3960867204        1.2351819685
 C         -0.1624357903        2.6199925392       -0.5836703514
 C         -1.0764199903        3.6943147494       -0.0797178719
 C          0.2190954795        4.0600928591       -0.7386361024
 H          0.1954262993        4.4947575785       -1.7266330226
 H          1.0207859196        4.4339952096       -0.1184463427
 H         -1.9954277304        3.8769947390       -0.6137850918
 H         -1.1550554301        3.8232860801        0.9887757880
 H         -0.4573500604        2.0836749886       -1.4759848010
