  62
        -98.94365306
 C          1.1463032206        1.4822949749        0.2334190842
 C          1.5797668855        0.4225679205        1.0708626786
 C          2.4513645332       -0.5875640492        0.4578700830
 C          2.7574552883       -0.4791368771       -0.8474917664
 C          3.6496629426       -1.4223399069       -1.6004288874
 C          5.1105514318       -0.9523561214       -1.5721313698
 C          5.6153618354       -0.5976729740       -0.1733858045
 H          6.6649990847       -0.3118229813       -0.2694296654
 H          5.0743076841        0.2802693184        0.1869504038
 C          5.4844582957       -1.7308132666        0.8538373516
 H          5.3509080736       -2.6829195431        0.3391163635
 H          6.4147273560       -1.7966791297        1.4219000262
 C          4.3555946536       -1.5396973275        1.8682766481
 H          4.4918597668       -2.2718915054        2.6684269895
 H          4.4322370603       -0.5459579501        2.3164152340
 C          2.9304804784       -1.7154243881        1.3282181117
 H          2.2539164108       -1.7380995223        2.1870594282
 H          2.8485215474       -2.6687371222        0.8015561988
 H          5.7345576343       -1.7398339571       -1.9987857740
 H          5.2009670966       -0.0667219984       -2.2055310020
 H          3.3055091590       -1.4626189429       -2.6357012279
 H          3.5667586496       -2.4163169940       -1.1644373777
 O          2.3194129830        0.5408140334       -1.6240300496
 C          1.4961123761        1.5424926561       -1.1175898792
 O          1.1829045807        2.3993705464       -1.9631115823
 O          1.2455103805        0.3263433374        2.2827713505
 C          0.2038739151        2.4898080019        0.8687409916
 C         -1.2126057440        1.9693563780        0.8319846424
 C         -2.0665856047        2.1322253806        1.9170537794
 C         -3.3592877977        1.6407218291        1.8766878308
 C         -3.8121821070        0.9442529691        0.7704521672
 C         -2.9609136639        0.7612329656       -0.3123174818
 C         -1.6813459284        1.2950621604       -0.2864192903
 H         -1.0408704386        1.1550254088       -1.1441051977
 N         -3.3536756735        0.0022418700       -1.4351721156
 S         -2.4127511881       -1.3519357787       -1.7529031956
 O         -1.1232338580       -0.9621608313       -2.2604541044
 O         -3.2263170339       -2.1697872323       -2.6267175391
 C         -2.2543259194       -2.1226957235       -0.1534070833
 C         -1.1873419924       -1.7780528024        0.6504292618
 C         -1.1352832700       -2.2683181810        1.9452275618
 C         -2.1426796084       -3.1003065105        2.4082142658
 C         -3.2012571104       -3.4512068221        1.5831431874
 C         -3.2666046578       -2.9501882241        0.2932004904
 H         -4.0729537173       -3.1932748773       -0.3799065902
 H         -3.9795242379       -4.1034903968        1.9451761262
 H         -2.1004102834       -3.4761174457        3.4182546966
 H         -0.3144637664       -1.9727625692        2.5798061007
 H         -0.4158394454       -1.1314200948        0.2618613508
 H         -4.3286455391       -0.2658581069       -1.4200248335
 H         -4.8114733902        0.5370596647        0.7458130581
 H         -4.0140106179        1.7813700270        2.7227143579
 H         -1.7054313094        2.6335741159        2.8026400686
 H          0.5030017641        2.5371283089        1.9286427358
 C          0.3244484772        3.8945429056        0.2980495759
 C         -0.6832977132        4.4820708222       -0.6389284397
 C         -0.5880637047        4.9891860149        0.7669191956
 H         -0.1689860210        5.9696687863        0.9344999820
 H         -1.3838974830        4.7246015516        1.4457875936
 H         -0.3170004890        5.0958514492       -1.4473546568
 H         -1.5336821904        3.8758734309       -0.9113794973
 H          1.3590399613        4.1679921769        0.1182634873
