  62
        -98.93486712
 C          1.7817377919       -0.3167320752       -1.0310555448
 C          2.2438219546       -0.1179439623        0.2898457089
 C          3.7078521679       -0.0621748529        0.4727320337
 C          4.5080414338       -0.2360036910       -0.5945810097
 C          6.0145398353       -0.2154213586       -0.6618816652
 C          6.7678446903       -0.9553009449        0.4540820700
 C          7.4889122772       -0.0191860351        1.4255903379
 H          8.3120606793       -0.5656873570        1.8913396995
 H          7.9261900710        0.8031666728        0.8553910974
 C          6.6199273442        0.5494069799        2.5461165978
 H          7.2113000246        1.3019996239        3.0730474424
 H          6.3900843585       -0.2424431888        3.2623044230
 C          5.3046610711        1.1873812891        2.0943595156
 H          4.9877756514        1.8854273980        2.8721730285
 H          5.4552218250        1.7710664728        1.1868137358
 C          4.1692009922        0.1741225332        1.8849365573
 H          4.4383796031       -0.7857759211        2.3347097292
 H          3.2721613436        0.5125649000        2.4129225854
 H          7.5179721958       -1.5922093422       -0.0175679823
 H          6.0837074901       -1.6084506796        0.9932724628
 H          6.2593837813       -0.6572660150       -1.6305358108
 H          6.3443161957        0.8258196185       -0.7042340334
 O          4.0137246773       -0.4420450418       -1.8502022931
 C          2.6555293688       -0.4762969143       -2.1041871090
 O          2.3568320203       -0.6509104954       -3.3035401425
 H         -2.1998722750       -0.0556846691       -0.1991531071
 C         -1.6704491975        0.8762351764       -0.3091172523
 C         -0.3931620744        0.8953272961       -0.8490165452
 C          0.2480528851        2.1225261187       -0.9943793604
 C         -0.3600028859        3.2920057365       -0.5822979759
 C         -1.6333540718        3.2677658763       -0.0414762464
 C         -2.2928928066        2.0525772138        0.0866348149
 N         -3.5859903614        1.9903583581        0.6283332914
 S         -4.7321688435        1.0066445600       -0.0932655288
 O         -4.5159319361        0.8923843888       -1.5166747839
 O         -6.0038303479        1.5688792103        0.3113242117
 C         -4.5429222008       -0.5818339730        0.6879980638
 C         -4.7677312064       -1.7200212350       -0.0606347145
 C         -4.6805141039       -2.9583931081        0.5565627419
 C         -4.3707155197       -3.0360586502        1.9054923215
 C         -4.1477338707       -1.8831743272        2.6432231243
 C         -4.2388391027       -0.6420521300        2.0336186461
 H         -4.0696306652        0.2721316360        2.5773471552
 H         -3.9030536515       -1.9477017333        3.6912599619
 H         -4.3008794486       -4.0003938934        2.3836859078
 H         -4.8526703257       -3.8553782231       -0.0170964313
 H         -4.9933878606       -1.6149170300       -1.1098112961
 H         -3.9786121818        2.8830798522        0.8903107448
 H         -2.1121029375        4.1814390484        0.2770538916
 H          0.1579854680        4.2332234640       -0.6906322967
 H          1.2385289518        2.1473975082       -1.4284094976
 C          0.2927535646       -0.3672027900       -1.3133193971
 H          0.1915899050       -0.4210560392       -2.4081044092
 C         -0.3005620036       -1.6241115138       -0.7082636281
 C         -1.4461431213       -2.3247138135       -1.3726410730
 C         -0.0766285733       -2.9318740326       -1.4042065265
 H          0.1129983234       -3.8098270744       -0.8054742021
 H          0.4754584025       -2.9082924264       -2.3328287555
 H         -2.1957405936       -2.7871582279       -0.7482087677
 H         -1.8354781251       -1.8960223336       -2.2842571354
 H         -0.2620901389       -1.6184835921        0.3750694568
 O          1.4728573178        0.0163578583        1.2756203136
