  62
        -98.94455548
 C         -2.6134228956       -1.2365218795        0.1340152318
 C         -2.6434854163       -0.2890758179       -0.9177665303
 C         -3.4627296483        0.9096521142       -0.6815318781
 C         -4.1292352675        1.0439070868        0.4785997447
 C         -4.9467894236        2.2396760500        0.8698615104
 C         -4.0984203272        3.2676850793        1.6313738178
 C         -2.7755902959        3.6109173661        0.9454708084
 H         -2.2815445228        4.3722121431        1.5533019649
 H         -2.1261878050        2.7315659224        0.9512660380
 C         -2.9196198157        4.1234496792       -0.4943195655
 H         -3.9431415980        4.4576149187       -0.6686201024
 H         -2.2675478359        4.9899677230       -0.6231204531
 C         -2.5272877509        3.1095714659       -1.5707971199
 H         -1.5374876542        2.7020111144       -1.3442900048
 H         -2.4497653702        3.6396100520       -2.5241520893
 C         -3.5018712641        1.9419719392       -1.7731378922
 H         -4.5147575429        2.3279176544       -1.9035625126
 H         -3.2110395753        1.4218090392       -2.6904600827
 H         -4.6892859867        4.1765894521        1.7580411688
 H         -3.8739656376        2.8663337588        2.6222323952
 H         -5.3699448751        2.6929877679       -0.0242955771
 H         -5.7591779444        1.9033979568        1.5161870951
 O         -4.0930171448        0.1070138260        1.4589192879
 C         -3.3287065987       -1.0371280524        1.3201343492
 O         -3.3732412610       -1.8010177369        2.3047105105
 H         -0.0246584471       -1.1880978734       -1.4972237405
 C          0.4210021757       -1.4806482976       -0.5582241918
 C         -0.3397195705       -2.1805563589        0.3676332486
 C          0.2393108325       -2.5129167457        1.5870970333
 C          1.5454266015       -2.1524764968        1.8686400613
 C          2.2968063310       -1.4468381893        0.9456229588
 C          1.7229290485       -1.1007589937       -0.2703143085
 N          2.4701305576       -0.3545218706       -1.2048864308
 S          3.0309947603        1.1374696216       -0.6650170590
 O          2.1869145959        1.6736995912        0.3790249817
 O          3.1809885252        1.9485069122       -1.8537109605
 C          4.6463460472        0.7627564241       -0.0156777799
 C          4.9531940573        1.0707672697        1.2950518218
 C          6.2190643071        0.7712671155        1.7747853611
 C          7.1501766120        0.1733915181        0.9394028248
 C          6.8268732381       -0.1271575387       -0.3756307913
 C          5.5637914493        0.1703323865       -0.8615057302
 H          5.2722008862       -0.0425685693       -1.8763426692
 H          7.5537626207       -0.5919542869       -1.0220364066
 H          8.1337083584       -0.0596925922        1.3157084263
 H          6.4720758177        1.0043479454        2.7966433438
 H          4.1942270638        1.5294034302        1.9087964968
 H          1.9820736497       -0.2344584062       -2.0822799477
 H          3.3110393735       -1.1534132354        1.1628464694
 H          1.9813057603       -2.4183158508        2.8196298914
 H         -0.3520158770       -3.0381225079        2.3233956067
 C         -1.7850128066       -2.5135567499        0.0832872979
 H         -2.1539555917       -3.1369442192        0.9083065338
 C         -1.9523827410       -3.2848961690       -1.2104935803
 C         -1.5853881619       -4.7370608566       -1.2391691593
 C         -3.0249795658       -4.3259986211       -1.3058766702
 H         -3.5527841321       -4.4363425131       -2.2412515186
 H         -3.6435501253       -4.4873766182       -0.4348520664
 H         -1.1220612642       -5.1333883762       -2.1295100857
 H         -1.2276832159       -5.1796030949       -0.3218182903
 H         -1.7561620533       -2.6965821016       -2.0966683298
 O         -2.0293366346       -0.4128630566       -2.0123944218
