  62
        -98.93985438
 C         -1.5203029348       -1.4523049467       -0.1985766849
 C         -1.5187364678       -0.0588619954       -0.4402373577
 C         -2.8398369988        0.5701184363       -0.6251986958
 C         -3.9430035436       -0.1954567995       -0.5626714636
 C         -5.3743953223        0.2535312959       -0.6688050127
 C         -5.9640464147        0.5223955220        0.7261069976
 C         -5.7336545398        1.9350490415        1.2618607336
 H         -6.3532720530        2.6366419168        0.6992188239
 H         -6.0815851402        1.9498136401        2.2974269444
 C         -4.2829826975        2.4231329215        1.2231560630
 H         -4.1865570638        3.2388630167        1.9423612809
 H         -3.6162590067        1.6235147764        1.5511099565
 C         -3.8521894489        2.9279827072       -0.1619993462
 H         -3.4080552421        3.9203344105       -0.0615386932
 H         -4.7368790371        3.0474594471       -0.7873030792
 C         -2.8203938601        2.0513103451       -0.8871336265
 H         -2.9088645077        2.2158884835       -1.9659817029
 H         -1.8104613655        2.3638172779       -0.6027680097
 H         -5.5358949136       -0.2085237281        1.4170803356
 H         -7.0410718545        0.3455289609        0.6917718461
 H         -5.9264478413       -0.5700111856       -1.1265344778
 H         -5.4580941695        1.1285394518       -1.3063838143
 O         -3.8962770696       -1.5369921897       -0.3276732181
 C         -2.6959848151       -2.1967915843       -0.1348554487
 O         -2.8055666915       -3.4203159652        0.0864511823
 O         -0.4687638125        0.6304214504       -0.4914883353
 C         -0.1990140309       -2.1743227906       -0.0082416594
 C          0.6028985194       -1.4901592507        1.0711761495
 C         -0.0015907472       -1.2298227063        2.2989113268
 C          0.6868901240       -0.5742692633        3.3004038865
 C          1.9888294870       -0.1505880497        3.0959520736
 C          2.6056165774       -0.4189147149        1.8807020664
 C          1.9193427890       -1.1014776057        0.8850813225
 H          2.4312851720       -1.3172799984       -0.0366051308
 N          3.9255914957       -0.0140043706        1.6454722754
 S          4.4451397501        0.3752183008        0.1077582519
 O          4.6877448328       -0.8275366463       -0.6502946456
 O          5.6053519672        1.2126703287        0.3331871541
 C          3.1531106489        1.3363524850       -0.6580728784
 C          2.6746995131        2.4500419826        0.0009552930
 C          1.6913347841        3.2138949869       -0.6040163176
 C          1.2078637403        2.8561378173       -1.8518731984
 C          1.7018454555        1.7381334953       -2.5025938441
 C          2.6831371119        0.9685429733       -1.9012046338
 H          3.0886432281        0.0850888766       -2.3697302062
 H          1.3166991294        1.4561305257       -3.4700279476
 H          0.4346783534        3.4467707039       -2.3177246347
 H          1.2978243248        4.0807468220       -0.0973577314
 H          3.0707955346        2.7067837665        0.9703652009
 H          4.3250881185        0.5896308336        2.3480823656
 H          2.5227754135        0.3785518340        3.8703465148
 H          0.2029293728       -0.3775663491        4.2453764415
 H         -1.0261356921       -1.5422333706        2.4519152004
 H         -0.4454854457       -3.1918882952        0.3282954104
 C          0.5305370732       -2.2572834977       -1.3330191872
 C          1.4993630419       -3.3691000094       -1.5969558864
 C          0.1756776457       -3.3448181582       -2.2996714895
 H          0.1537425953       -3.1120480796       -3.3537384522
 H         -0.5807039191       -4.0530361126       -1.9934571149
 H          2.3933671455       -3.1530852925       -2.1632002995
 H          1.6451910342       -4.1004601279       -0.8162236710
 H          0.7530193216       -1.2778710417       -1.7421970405
