  62
        -98.94070702
 C         -2.3074415386       -1.0536049221       -0.0542599040
 C         -2.0135050882        0.2427832874       -0.5424694552
 C         -2.7205826692        1.3500554086        0.1150138308
 C         -3.5486615426        1.1068178606        1.1458947977
 C         -4.3131713154        2.1347053910        1.9349213970
 C         -5.6367624358        2.5640146174        1.2867107747
 C         -5.4986553775        3.4534587074        0.0504380699
 H         -6.4901138663        3.8561176577       -0.1658782932
 H         -4.8481023445        4.2971788698        0.2827182934
 C         -4.9780240390        2.7269616450       -1.1975245057
 H         -5.0838183225        1.6482626251       -1.0614461658
 H         -5.5886127572        3.0023230486       -2.0603398596
 C         -3.5245868702        3.0399054271       -1.5527164826
 H         -3.2493941474        2.4437140283       -2.4262730576
 H         -3.4315305014        4.0945724523       -1.8209485846
 C         -2.5217051191        2.7312352745       -0.4334365218
 H         -2.6053181607        3.4707482970        0.3626919683
 H         -1.5128594291        2.7805831496       -0.8505584566
 H         -6.2059226964        1.6677843947        1.0294070187
 H         -6.2046488273        3.1128767408        2.0414885094
 H         -3.6852267042        3.0108300763        2.1002907322
 H         -4.5349432236        1.6795872760        2.9027034642
 O         -3.7752209896       -0.1487964149        1.6146180656
 C         -3.1798759720       -1.2480207426        1.0222821044
 O         -3.5027991851       -2.3380914632        1.5359811174
 O         -1.2075404614        0.4945302199       -1.4786169120
 C         -1.6859278346       -2.3225021487       -0.6217111295
 C         -0.2871443216       -2.4965111898       -0.0793877654
 C          0.0021167685       -3.5014317088        0.8361261244
 C          1.2748606674       -3.6270228795        1.3655491136
 C          2.2832491743       -2.7542148242        0.9968638149
 C          2.0003535598       -1.7421679572        0.0891970756
 C          0.7278163250       -1.6258846228       -0.4495181039
 H          0.5087924164       -0.8237656545       -1.1387921746
 N          3.0145561607       -0.8305844126       -0.2915584020
 S          3.6326350177        0.1098632438        0.9716911315
 O          4.3884328000       -0.7474820181        1.8493052088
 O          2.5732231245        0.8768482302        1.5936543667
 C          4.7351447865        1.1860041595        0.0770472976
 C          4.2849048699        2.4274583325       -0.3289479703
 C          5.1383007242        3.2461350773       -1.0519436329
 C          6.4184101195        2.8093944305       -1.3578991914
 C          6.8551071671        1.5595119031       -0.9445484785
 C          6.0073141380        0.7366723417       -0.2204136762
 H          6.3039785546       -0.2384057216        0.1284758682
 H          7.8516206375        1.2249303471       -1.1834998216
 H          7.0799084920        3.4490216471       -1.9206028043
 H          4.8012381239        4.2186560150       -1.3730832245
 H          3.2840839541        2.7289205497       -0.0622602254
 H          2.6632987968       -0.1987025505       -1.0017986376
 H          3.2718549980       -2.8278888087        1.4193725543
 H          1.4837504303       -4.4111738020        2.0777896990
 H         -0.7857257591       -4.1719518062        1.1486191945
 H         -2.2978607905       -3.1487632361       -0.2361866876
 C         -1.7135523959       -2.3721383844       -2.1366923273
 C         -1.5742547122       -3.6977579680       -2.8201841172
 C         -2.8928126658       -2.9854200238       -2.8270495575
 H         -3.2374241069       -2.5420896313       -3.7492288666
 H         -3.6872961862       -3.3759332897       -2.2075116106
 H         -1.0109225379       -3.7462811799       -3.7392469448
 H         -1.4746653062       -4.5729850631       -2.1960449918
 H         -1.2578993344       -1.5113237510       -2.6070906636
