  62
        -98.94358176
 C         -1.7315393102       -1.2471589455        0.1858238296
 C         -1.8622638028       -0.0642299046       -0.5813533791
 C         -3.2368502101        0.3075315337       -0.9481998190
 C         -4.2583775566       -0.4814696750       -0.5683698725
 C         -5.7081149331       -0.1897723504       -0.8248184631
 C         -6.3280802862        0.6006516150        0.3360750833
 C         -5.5059832632        1.8163687206        0.7643973880
 H         -6.0540822733        2.3121689664        1.5686160037
 H         -4.5572095544        1.4755673909        1.1854049035
 C         -5.2270945590        2.8227325054       -0.3607206959
 H         -5.4054502762        3.8307124689        0.0198269536
 H         -5.9236565966        2.6598653714       -1.1839749765
 C         -3.7940399516        2.7951842177       -0.8957039584
 H         -3.6486168938        3.6801298044       -1.5209104622
 H         -3.0900310669        2.8635849046       -0.0623685259
 C         -3.4209317734        1.5707884098       -1.7409841267
 H         -4.1619360440        1.4281292628       -2.5300132605
 H         -2.4528139655        1.7727856161       -2.2081345535
 H         -6.4258885297       -0.0664352375        1.1958120082
 H         -7.3286396411        0.9214361639        0.0402784419
 H         -5.8023516575        0.3720484543       -1.7519594051
 H         -6.2370475270       -1.1385322798       -0.9297307704
 O         -4.0886688086       -1.6239221561        0.1462565525
 C         -2.8272774835       -2.0260381386        0.5548022555
 O         -2.8137250913       -3.0750778234        1.2310913492
 H          2.1535795371       -0.5927522079        0.3849832368
 C          1.5755197068       -0.1423124647        1.1723714616
 C          0.2969416342       -0.6000505943        1.4433177908
 C         -0.4126232186       -0.0177099274        2.4909029937
 C          0.1408559376        1.0077456781        3.2320847131
 C          1.4104558981        1.4776507118        2.9436585772
 C          2.1298190097        0.8996381930        1.9045168568
 N          3.3918814579        1.3885006574        1.5600929810
 S          4.5060655347        0.5290207448        0.6755186401
 O          4.6545318270       -0.8223527078        1.1646996083
 O          5.6998235197        1.3462022046        0.7248975356
 C          3.8667489855        0.5090985781       -0.9867373695
 C          3.2026157626        1.6167566925       -1.4733488392
 C          2.7165887319        1.5878201760       -2.7703947717
 C          2.9062712773        0.4619913336       -3.5565039119
 C          3.5827937782       -0.6396401433       -3.0561211353
 C          4.0693954500       -0.6175565112       -1.7591322006
 H          4.5902471380       -1.4562780778       -1.3243022643
 H          3.7276975090       -1.5152631668       -3.6689070682
 H          2.5204866096        0.4409904704       -4.5636687404
 H          2.1829890916        2.4394568160       -3.1603932297
 H          3.0601968495        2.4733377142       -0.8359442965
 H          3.7922609542        2.0882298569        2.1644493719
 H          1.8378945241        2.2882567458        3.5136410549
 H         -0.4213614863        1.4502911151        4.0408894796
 H         -1.4086019888       -0.3787136421        2.7111670990
 C         -0.3545740298       -1.6982364386        0.6387522384
 H         -0.5154838401       -2.5616989098        1.3008425838
 C          0.4649640808       -2.1426283957       -0.5550474395
 C          1.5529967767       -3.1587148807       -0.3876849566
 C          0.2804484418       -3.5310543251       -1.0859280793
 H          0.3031125935       -3.6816289881       -2.1545867029
 H         -0.4208933190       -4.1704352542       -0.5694047607
 H          2.4514005395       -3.0532934264       -0.9766115779
 H          1.7250096927       -3.5496877541        0.6039431487
 H          0.6151198295       -1.3472222190       -1.2766789195
 O         -0.8872771805        0.6448013213       -0.9396931396
