  62
        -98.94427533
 C         -1.3031353719       -1.5237672588       -0.0776644755
 C         -1.3219370333       -0.1119992429       -0.1941020394
 C         -2.4800959960        0.5645550465        0.4128365620
 C         -3.4209690441       -0.1598323847        1.0434174315
 C         -4.6749969646        0.3997261751        1.6487912182
 C         -5.8274787873        0.4007856506        0.6344576280
 C         -5.4578341980        1.0034103525       -0.7211133385
 H         -4.7136052254        0.3655477766       -1.2035167735
 H         -6.3549080862        0.9764220899       -1.3437176578
 C         -4.9248553075        2.4413928265       -0.6533178800
 H         -5.1988413305        2.8924176942        0.3010408074
 H         -5.4043880399        3.0289802410       -1.4391145942
 C         -3.4141316067        2.5684184053       -0.8592139050
 H         -3.1229772320        2.0386184150       -1.7695567335
 H         -3.1802049562        3.6258541263       -1.0066301672
 C         -2.5392323819        2.0613221104        0.2938744533
 H         -1.5127593101        2.3839711093        0.0998961293
 H         -2.8714363410        2.5089051282        1.2323361392
 H         -6.6652130844        0.9531390282        1.0641171711
 H         -6.1481739378       -0.6312029586        0.4737461318
 H         -4.9534902511       -0.2226549335        2.5008368919
 H         -4.4839639794        1.4124823683        1.9978125091
 O         -3.3577504871       -1.5111623984        1.1565840773
 C         -2.3116431344       -2.2208228582        0.5958297384
 O         -2.3906237294       -3.4557946364        0.7576729074
 H          1.5572916198       -0.3344811047       -0.2786037368
 C          1.8288130552       -1.2134277670        0.2828054626
 C          1.0346465849       -2.3497985878        0.2124932580
 C          1.3852510309       -3.4603270043        0.9726457983
 C          2.5120186115       -3.4374768034        1.7745134661
 C          3.3154902106       -2.3130117581        1.8225445810
 C          2.9672351895       -1.1928964061        1.0749098163
 N          3.7435671609       -0.0301354965        1.1361398723
 S          3.8757155318        1.0154117128       -0.1606173345
 O          3.8472916130        0.3162936240       -1.4238846424
 O          5.0928756040        1.7541770437        0.1151814793
 C          2.5068636367        2.1403627569       -0.0114464767
 C          2.1153448098        2.5486569434        1.2473436812
 C          1.1069635774        3.4910594718        1.3602730092
 C          0.5170103455        4.0126130917        0.2190202039
 C          0.9211394743        3.5905055739       -1.0373434496
 C          1.9258471737        2.6446593580       -1.1560630502
 H          2.2598481449        2.2792675472       -2.1141205983
 H          0.4514741850        3.9861779449       -1.9237032231
 H         -0.2663299146        4.7492562887        0.3100307612
 H          0.7809063369        3.8136007238        2.3363339477
 H          2.5943035173        2.1217372714        2.1131062078
 H          4.6067400785       -0.1077416504        1.6529961704
 H          4.2020789279       -2.2964391073        2.4381534103
 H          2.7731463841       -4.3064302739        2.3594737084
 H          0.7584031109       -4.3398753498        0.9384736954
 C         -0.1954493232       -2.3872858298       -0.6626703509
 H         -0.5853229376       -3.4142386165       -0.6442666178
 C          0.1387180442       -2.0331037484       -2.0983364796
 C          0.7806975251       -3.0695129052       -2.9684743684
 C         -0.6419933050       -2.6637695889       -3.2099363576
 H         -0.8704522815       -2.0695956933       -4.0820253213
 H         -1.4226228988       -3.3605310199       -2.9395365996
 H          0.9629755682       -4.0424542108       -2.5370530169
 H          1.5360142494       -2.7526451881       -3.6713962455
 H          0.4502911519       -1.0057156363       -2.2321972013
 O         -0.4374125175        0.5706598597       -0.7737595222
