  62
        -98.93623613
 C         -1.7434836997       -0.7268574788        0.9706035088
 C         -2.0401580557       -0.3597064976       -0.3635481522
 C         -3.4663473362       -0.3600587053       -0.7280704986
 C         -4.3802976791       -0.7142810864        0.1936472611
 C         -5.8699854720       -0.6874374994       -0.0000877405
 C         -6.3881317199        0.7612926073        0.1045537087
 C         -6.9750409707        1.3162979949       -1.1935007344
 H         -7.9660185392        0.8842220460       -1.3479976828
 H         -7.1024484410        2.3927993232       -1.0605377255
 C         -6.1513557426        1.0640813276       -2.4600616888
 H         -6.5454295844        1.7281674596       -3.2323455743
 H         -6.3207488596        0.0449878307       -2.8108072690
 C         -4.6397822832        1.2956075489       -2.3355530397
 H         -4.4217635347        1.9908866039       -1.5245528334
 H         -4.2914917703        1.7650779465       -3.2577709638
 C         -3.8083103927        0.0133620623       -2.1439538772
 H         -4.3126183240       -0.8251061054       -2.6320912493
 H         -2.8407464306        0.1482635103       -2.6363484474
 H         -7.1551252207        0.8186492770        0.8784910070
 H         -5.5631109778        1.3969608034        0.4331869280
 H         -6.1232686526       -1.1160030735       -0.9671197525
 H         -6.3105636702       -1.3055384831        0.7824184497
 O         -4.0522346706       -1.0709416078        1.4635308437
 C         -2.7331386836       -1.0806302025        1.8860364438
 O         -2.5748842353       -1.4125079679        3.0787095812
 O         -1.1608391112       -0.0477969629       -1.2077810710
 C         -0.3011703492       -0.7467510571        1.4423320676
 C          0.3334000824        0.6087029598        1.2466959210
 C         -0.3657409084        1.7471553872        1.6402769886
 C          0.1810641803        3.0042409268        1.4746351386
 C          1.4429522483        3.1538151589        0.9262625884
 C          2.1549318846        2.0248155703        0.5418022910
 C          1.5989161649        0.7625080993        0.7037749892
 H          2.1682010683       -0.1007630077        0.4041305765
 N          3.4236560227        2.1455673038       -0.0389803733
 S          4.6103854062        1.0023086804        0.2261912396
 O          4.5699783425        0.4904895071        1.5763131458
 O          5.8390612135        1.6632182056       -0.1607600518
 C          4.2668194500       -0.3013736277       -0.9367257336
 C          3.7698203025        0.0177251777       -2.1845574246
 C          3.5382887030       -1.0030297727       -3.0926039884
 C          3.8134258883       -2.3165087317       -2.7439538969
 C          4.3194184380       -2.6197619699       -1.4895586742
 C          4.5496768193       -1.6038114048       -0.5752277049
 H          4.9315962940       -1.7951833047        0.4152211473
 H          4.5327514658       -3.6421527846       -1.2201331800
 H          3.6304906748       -3.1086237018       -3.4528974978
 H          3.1405995478       -0.7712120149       -4.0675507336
 H          3.5598767431        1.0470458613       -2.4225979467
 H          3.7944405681        3.0828577106       -0.0846798494
 H          1.8708088148        4.1359562871        0.7943146317
 H         -0.3768393204        3.8773426410        1.7786787130
 H         -1.3504232751        1.6311283147        2.0733360629
 H         -0.3355270512       -0.9515130627        2.5229007863
 C          0.4498125388       -1.8704582013        0.7580344438
 C          1.6004315533       -2.5416153095        1.4437197883
 C          0.2979156865       -3.2649491314        1.2837769394
 H          0.2434711550       -4.0795413755        0.5775877574
 H         -0.3262188425       -3.3997068090        2.1554670269
 H          2.4395521359       -2.8599447320        0.8439070344
 H          1.8730323998       -2.1888984253        2.4272378642
 H          0.4989524087       -1.7426381623       -0.3174552557
