  62
        -98.94834977
 C          0.8486830572        1.2148713316        0.5339700570
 C          1.2433347640        0.5450192139       -0.6487458710
 C          2.1756602809       -0.5760475748       -0.4617622015
 C          2.4788112434       -0.9781450040        0.7852460933
 C          3.4664847563       -2.0575972397        1.1208871925
 C          4.8676512175       -1.4684606253        1.3400870762
 C          5.3158316271       -0.5115280672        0.2347739265
 H          4.6780961199        0.3754271068        0.2514364685
 H          6.3275916069       -0.1828822047        0.4824901321
 C          5.3064407948       -1.1172339479       -1.1759471649
 H          6.2320355463       -0.8351315469       -1.6821029325
 H          5.2924226026       -2.2056591412       -1.1106863301
 C          4.1517484719       -0.6468147273       -2.0630253957
 H          4.1050325164        0.4449576935       -2.0539829833
 H          4.3650259855       -0.9568014120       -3.0892493414
 C          2.7665979150       -1.1955493888       -1.6959891001
 H          2.8205386194       -2.2804301431       -1.6004433374
 H          2.0794806912       -0.9497589601       -2.5101912878
 H          4.8692401706       -0.9216720311        2.2860337812
 H          5.5798652867       -2.2915189226        1.4231000245
 H          3.4946046477       -2.7864872688        0.3134590526
 H          3.1427848231       -2.5515234840        2.0388268881
 O          1.9551558778       -0.4015304611        1.8990566278
 C          1.1777271709        0.7415099368        1.8033081989
 O          0.8422515357        1.2311707487        2.9020074907
 O          0.8610629971        0.8792358224       -1.7991467857
 C          0.0345528563        2.4927060333        0.4433828140
 C         -1.2831591267        2.2355552317       -0.2438958231
 C         -1.7577213974        2.9953701680       -1.3049958481
 C         -2.9875795908        2.7114311272       -1.8727607100
 C         -3.7673153207        1.6750343956       -1.3947564893
 C         -3.3057707452        0.9164701801       -0.3239646642
 C         -2.0718256123        1.1981420752        0.2391364378
 H         -1.7231664212        0.6118697836        1.0777347886
 N         -4.0877741974       -0.1207234880        0.2029797764
 S         -3.3957571472       -1.4452460301        0.9300173459
 O         -4.4464056698       -2.4426869878        0.9134343597
 O         -2.8864951008       -1.1035877040        2.2350276901
 C         -2.0715957266       -1.9977651952       -0.1293801946
 C         -2.2550895318       -2.0092012855       -1.4975699094
 C         -1.2617840015       -2.5417161696       -2.3024502097
 C         -0.1164800676       -3.0696493767       -1.7289950724
 C          0.0555073581       -3.0473168486       -0.3543129299
 C         -0.9276209857       -2.5009065198        0.4542040499
 H         -0.8268386609       -2.4519353386        1.5276876558
 H          0.9461805497       -3.4551959999        0.0955111749
 H          0.6461881890       -3.5004011306       -2.3577595353
 H         -1.3865591357       -2.5489033348       -3.3731429184
 H         -3.1615148450       -1.6087709377       -1.9209909691
 H         -4.9213373492       -0.3516582477       -0.3162859758
 H         -4.7274097736        1.4560638111       -1.8360710441
 H         -3.3429697719        3.3052978029       -2.7009037609
 H         -1.1645620464        3.8075354104       -1.6908013581
 H         -0.1833249560        2.7861381840        1.4812276646
 C          0.8612010625        3.5820865023       -0.2090627558
 C          0.6130320402        5.0210306886        0.1260428358
 C          1.8491191293        4.3372732864        0.6263643776
 H          2.8001931390        4.6021660419        0.1890935049
 H          1.9075054110        4.0836790870        1.6753334027
 H          0.7186047256        5.7595097158       -0.6542282183
 H         -0.1671780645        5.2402461548        0.8392861806
 H          1.1531082181        3.3335579542       -1.2228916407
