  62
        -98.93904217
 C         -2.2218782036       -1.1759518174        0.4420019597
 C         -2.2689640007       -0.2313878711       -0.6084227886
 C         -3.0416277719        1.0031143187       -0.3586977503
 C         -3.6388652411        1.1648033813        0.8368484217
 C         -4.5087343391        2.3037400043        1.2986961586
 C         -5.9213205027        2.2535739694        0.6940187654
 C         -5.9720892805        1.9349888169       -0.7978462345
 H         -7.0228426073        1.8219395528       -1.0770921854
 H         -5.4840946863        0.9751906877       -0.9763257286
 C         -5.3579185313        2.9934735465       -1.7108206265
 H         -5.8723053294        3.9442682676       -1.5547264997
 H         -5.5435045580        2.6804831928       -2.7413530121
 C         -3.8535593373        3.2238854098       -1.5502974127
 H         -3.6388934579        3.8270308582       -0.6719823147
 H         -3.5181417444        3.8062163964       -2.4135718434
 C         -3.0118471565        1.9515501584       -1.5327846441
 H         -1.9567178946        2.2282907125       -1.6566146635
 H         -3.2544134905        1.3482503123       -2.4150407628
 H         -6.4096827281        3.2112657394        0.8813148458
 H         -6.4848020016        1.4783374411        1.2187919561
 H         -4.5921242802        2.2140601516        2.3841734826
 H         -4.0268936849        3.2526775088        1.0819066860
 O         -3.5508315020        0.2301732342        1.8275237031
 C         -2.8408956107       -0.9440159434        1.6681041464
 O         -2.8270562669       -1.6832237223        2.6742900304
 H          0.1029482022       -0.6948826802        1.5099796647
 C          0.6464921293       -1.1769205476        0.7052095308
 C          0.0017551551       -2.1410901933       -0.0602468152
 C          0.7106314667       -2.7519093852       -1.0857457718
 C          2.0206751040       -2.3872200497       -1.3455819635
 C          2.6527529746       -1.4173541423       -0.5898403754
 C          1.9557702184       -0.8063123411        0.4444929647
 N          2.5935080113        0.1761358902        1.2269961584
 S          3.2546187667        1.4927860806        0.4153259757
 O          3.2768126116        2.5627883879        1.3898676570
 O          2.5569965539        1.7641140897       -0.8202948882
 C          4.9263923799        0.9807678748        0.0794260798
 C          5.7182187524        0.6065836884        1.1475520177
 C          7.0229788912        0.2079647626        0.9052813739
 C          7.5116137121        0.1929130868       -0.3928204548
 C          6.7048507811        0.5747709451       -1.4537845015
 C          5.3980887596        0.9737438974       -1.2185240949
 H          4.7311704860        1.2726919281       -2.0115647030
 H          7.0862982465        0.5624416146       -2.4621337854
 H          8.5273822002       -0.1183018726       -0.5788132725
 H          7.6532387837       -0.0897453662        1.7276682719
 H          5.2999937284        0.6362605312        2.1398016488
 H          2.0264671855        0.4999077487        1.9980049069
 H          3.6697868803       -1.1253464515       -0.7945342157
 H          2.5564962011       -2.8642669549       -2.1519191191
 H          0.2336881552       -3.5048130844       -1.6912188216
 C         -1.4361897528       -2.4633391009        0.2689197404
 H         -1.4591854052       -2.9668440485        1.2467666828
 C         -2.1082538725       -3.3542480164       -0.7547589442
 C         -1.9754386861       -4.8439226512       -0.6627746470
 C         -3.2795035310       -4.1857601655       -0.3290202985
 H         -4.1072024067       -4.2993270018       -1.0128788792
 H         -3.5761457478       -4.1277688693        0.7084051427
 H         -1.3885141088       -5.2441325814        0.1499406720
 H         -1.9109982822       -5.4134844261       -1.5775263947
 H         -2.1474816497       -2.8996058699       -1.7379985794
 O         -1.6967472863       -0.4046652390       -1.7163748785
