  62
        -98.94163806
 C         -2.5770322451       -0.0409736005       -0.4991593237
 C         -2.7730579502        0.9061681950        0.5389062275
 C         -2.2987672762        2.2679293295        0.2834370130
 C         -1.7243024143        2.5579769440       -0.8976010584
 C         -1.1586504626        3.8906912711       -1.3059958116
 C          0.2787003608        4.1111239063       -0.8140028708
 C          0.4114659836        4.4118762853        0.6796380593
 H         -0.2791272512        5.2105231183        0.9542024279
 H          1.4250284696        4.7833096219        0.8434827890
 C          0.1840899263        3.1954985928        1.5884562217
 H          0.9657047891        3.1563756717        2.3516988717
 H          0.2835793975        2.2769371505        1.0038413675
 C         -1.1598978567        3.1863254527        2.3178158100
 H         -1.1991357832        4.0207108438        3.0225495999
 H         -1.2262261533        2.2569698466        2.8900774124
 C         -2.3852094837        3.2663937562        1.3979508771
 H         -2.4899748123        4.2747167689        0.9978418364
 H         -3.2725743616        3.0282177586        1.9900277421
 H          0.6931659983        4.9530402970       -1.3738035208
 H          0.8679096389        3.2219740782       -1.0536594446
 H         -1.8002200923        4.6942455153       -0.9432709779
 H         -1.1575788897        3.9084201345       -2.3978986293
 O         -1.5981569563        1.6401376309       -1.8874850364
 C         -1.9580050624        0.3117383478       -1.6995245925
 O         -1.6876121327       -0.4122909550       -2.6784089210
 O         -3.3223583908        0.6171460608        1.6380382749
 C         -2.9429992081       -1.4751307824       -0.1618021454
 C         -1.7843567573       -2.1427329847        0.5471205223
 C         -1.9946533368       -3.0157554792        1.6078244943
 C         -0.9227417343       -3.5840075979        2.2728813102
 C          0.3753515879       -3.2652726777        1.9162521167
 C          0.5961765864       -2.3952387433        0.8551876415
 C         -0.4813453620       -1.8702107607        0.1592453978
 H         -0.2955642886       -1.2095901881       -0.6716127874
 N          1.9041661984       -2.0303935445        0.4652488495
 S          2.2787145363       -0.3779203178        0.4946619004
 O          2.3643181019        0.0600029072        1.8736463710
 O          1.3807272348        0.3583455821       -0.3539926698
 C          3.9054966362       -0.4244902843       -0.2296596156
 C          3.9990895792       -0.5738381637       -1.5998039044
 C          5.2548208161       -0.6511976862       -2.1805676613
 C          6.3889416113       -0.5804740421       -1.3847557985
 C          6.2785330085       -0.4281682875       -0.0110393267
 C          5.0250750764       -0.3510120385        0.5761029320
 H          4.8901221963       -0.2247508761        1.6381883402
 H          7.1621993922       -0.3702560670        0.6037179333
 H          7.3647215162       -0.6419894815       -1.8400782874
 H          5.3432835950       -0.7668574741       -3.2488537487
 H          3.0893229471       -0.6172154956       -2.1770317737
 H          2.6005578774       -2.5052857972        1.0280559671
 H          1.2123687465       -3.6804930208        2.4577799299
 H         -1.0985751874       -4.2615334430        3.0946076907
 H         -3.0038908813       -3.2336859444        1.9233937272
 H         -3.7716854721       -1.4081296431        0.5579008631
 C         -3.3967105107       -2.3152926807       -1.3380226323
 C         -4.3334218081       -3.4619675796       -1.1077561810
 C         -4.8179483441       -2.2262434214       -1.8033532875
 H         -5.0123289309       -2.2661616941       -2.8642217762
 H         -5.4778323834       -1.5624973772       -1.2638224861
 H         -4.1961637609       -4.3598600913       -1.6900856045
 H         -4.6764974297       -3.6389117560       -0.0999713068
 H         -2.6342565735       -2.4316018322       -2.0969348037
