  62
        -98.94464142
 C         -1.6883595937       -1.3980772293        0.2154518961
 C         -1.6381003605       -0.3319589340       -0.7157341645
 C         -2.9398651705        0.1880546457       -1.1624594805
 C         -4.0717097382       -0.3680387102       -0.6942727768
 C         -5.4590700181        0.0998775030       -1.0233935228
 C         -5.9494177624        1.1378918362       -0.0043433188
 C         -4.9490590828        2.2631825426        0.2613095846
 H         -5.4138569706        2.9509670060        0.9711394279
 H         -4.0638174487        1.8488114474        0.7498919453
 C         -4.5174580843        3.0377753849       -0.9917962970
 H         -5.2310235945        2.8648894455       -1.7983473222
 H         -4.5353364013        4.1061880945       -0.7663741112
 C         -3.1066056152        2.7122648740       -1.4864876088
 H         -2.8266163074        3.4620480136       -2.2316794867
 H         -2.3960262258        2.7975653925       -0.6594560657
 C         -2.9276238581        1.3336598012       -2.1348798344
 H         -1.9404223198        1.3176400462       -2.6060538273
 H         -3.6822588208        1.1911905936       -2.9111837058
 H         -6.8876928435        1.5616770444       -0.3667248001
 H         -6.1490090138        0.6279862017        0.9409428282
 H         -6.1275331704       -0.7623797549       -1.0004648887
 H         -5.4656472475        0.5264489587       -2.0244059207
 O         -4.0791228918       -1.4028588039        0.1840206624
 C         -2.8955126890       -1.9259888239        0.6766043879
 O         -3.0466844627       -2.8478843789        1.5036128958
 O         -0.5699763408        0.1600840194       -1.1630865686
 C         -0.4098719557       -1.9865723836        0.7909333840
 C          0.2519623683       -0.9356919422        1.6498465257
 C         -0.4012137610       -0.5046670041        2.8026384443
 C          0.1570486480        0.4695285042        3.6066693852
 C          1.3682180983        1.0496659785        3.2671355835
 C          2.0238209315        0.6330910553        2.1167604289
 C          1.4724876423       -0.3673718737        1.3266963771
 H          2.0020257356       -0.6916813124        0.4491980508
 N          3.2610246514        1.1874431225        1.7371613003
 S          3.3615554175        1.8852552973        0.2063708768
 O          4.5406560989        2.7246334464        0.2796349114
 O          2.1329506343        2.5587577127       -0.1426343214
 C          3.6953154542        0.5275640334       -0.8932479018
 C          2.7582046541        0.1516844396       -1.8353763410
 C          3.0520426638       -0.9113561056       -2.6760348731
 C          4.2647349205       -1.5734834565       -2.5601298630
 C          5.1943585610       -1.1800794152       -1.6087532344
 C          4.9103477816       -0.1172811574       -0.7667408079
 H          5.6051348658        0.2268718820       -0.0188632675
 H          6.1351451357       -1.6991772409       -1.5208857636
 H          4.4839119259       -2.4024662048       -3.2148823175
 H          2.3256804683       -1.2204339848       -3.4113467903
 H          1.8103365607        0.6665247435       -1.8721532757
 H          3.6479224000        1.8236208203        2.4210498350
 H          1.7996305638        1.8213712804        3.8873887366
 H         -0.3574350779        0.7893212717        4.5006481010
 H         -1.3548844589       -0.9476919016        3.0571640784
 H         -0.7263761246       -2.8087695981        1.4481062218
 C          0.4832845852       -2.5415750438       -0.2976692386
 C          1.5818871992       -3.4973487107        0.0556137386
 C          0.3698733046       -3.9855540239       -0.6781843976
 H          0.4681902381       -4.2523607727       -1.7194994355
 H         -0.3469374981       -4.5886703107       -0.1398717551
 H          2.5156485568       -3.4265088230       -0.4815532662
 H          1.6892889353       -3.7711403208        1.0942125914
 H          0.6673604878       -1.8318254201       -1.0943076085
