  62
        -98.94848215
 C          0.8317823013        1.2271572581        0.5670328435
 C          1.2018616955        0.5373170470       -0.6121757819
 C          2.1427158778       -0.5743488236       -0.4232991719
 C          2.4740475950       -0.9634165462        0.8206243045
 C          3.4140480139       -2.0830944631        1.1768282761
 C          4.8900450618       -1.6614950934        1.1993005666
 C          5.5125845540       -1.4161128106       -0.1759323765
 H          6.5917705771       -1.3399751706       -0.0288749922
 H          5.3315018070       -2.2811843962       -0.8144083436
 C          5.0192920726       -0.1428421533       -0.8777098825
 H          4.5420149522        0.5144936086       -0.1470668166
 H          5.8744027020        0.4014710893       -1.2849347524
 C          4.0476674097       -0.3889376250       -2.0324818800
 H          4.5584643812       -0.9340808470       -2.8290856052
 H          3.7407808746        0.5811596975       -2.4311587143
 C          2.7814597122       -1.1650273438       -1.6432366251
 H          3.0221090842       -2.2146407891       -1.4818252540
 H          2.0634043132       -1.0847888670       -2.4619288283
 H          5.4508880512       -2.4590497970        1.6922637674
 H          4.9871857979       -0.7612861973        1.8107936641
 H          3.1351677846       -2.4202887336        2.1775990024
 H          3.2879360795       -2.9114903401        0.4798123083
 O          1.9675735002       -0.3679661829        1.9352875542
 C          1.1950655956        0.7786503378        1.8358905800
 O          0.8917047777        1.2926502407        2.9331113998
 O          0.7911731224        0.8443822684       -1.7599506799
 C          0.0148373391        2.5023865166        0.4713479469
 C         -1.3152878705        2.2362018870       -0.1879557891
 C         -1.8288036624        3.0123487545       -1.2189101441
 C         -3.0690355353        2.7231816610       -1.7608140286
 C         -3.8202628783        1.6637361719       -1.2875774350
 C         -3.3188798760        0.8876436450       -0.2478097668
 C         -2.0758754944        1.1764927924        0.2911660178
 H         -1.6970574496        0.5755649370        1.1059630448
 N         -4.0676567940       -0.1781030000        0.2714719094
 S         -3.3249451744       -1.5144684492        0.9241162932
 O         -4.3557190256       -2.5326508629        0.9062849262
 O         -2.7781452779       -1.2110973149        2.2235831417
 C         -2.0253329687       -2.0034507228       -0.1957320520
 C         -0.8882294773       -2.5724108950        0.3390891139
 C          0.0785236345       -3.0751562407       -0.5156397785
 C         -0.1009666797       -2.9892312755       -1.8867174041
 C         -1.2385964333       -2.3962390522       -2.4094910558
 C         -2.2168878626       -1.9074762596       -1.5594095504
 H         -3.1151729949       -1.4558199705       -1.9471390622
 H         -1.3693745801       -2.3169579417       -3.4765697194
 H          0.6505951068       -3.3855121840       -2.5506661563
 H          0.9622576527       -3.5353649709       -0.1047876693
 H         -0.7805256678       -2.6069681871        1.4123307910
 H         -4.9102652415       -0.4105531477       -0.2325727840
 H         -4.7879285252        1.4393994077       -1.7093631238
 H         -3.4549809031        3.3305990228       -2.5650795613
 H         -1.2581780572        3.8424658216       -1.6006037690
 H         -0.1834703448        2.8133670522        1.5081118458
 C          0.8295130181        3.5800726132       -0.2151642071
 C          0.6037329263        5.0243591033        0.1128657972
 C          1.8475201159        4.3341985521        0.5842503885
 H          2.7881181179        4.5860997864        0.1177547988
 H          1.9332279814        4.0895078731        1.6335053039
 H          0.6941077070        5.7542458325       -0.6774099046
 H         -0.1532683378        5.2582141162        0.8461545300
 H          1.0896386416        3.3192536300       -1.2345544785
