  62
        -98.93726652
 C         -1.8771521209       -0.4735605198       -0.7868771500
 C         -2.2604042110       -0.1328539710        0.5309666503
 C         -3.7029335110       -0.2083209112        0.8284690101
 C         -4.5520457509       -0.5955633003       -0.1392594303
 C         -6.0506371010       -0.6910205503       -0.0576520405
 C         -6.7061622409        0.6082298802       -0.5555546893
 C         -6.8828539909        1.6893725892        0.5099314216
 H         -7.2304029208        2.5919427797        0.0019713424
 H         -7.6672971810        1.3826720686        1.2050696213
 C         -5.6242277110        2.0301878284        1.3121691020
 H         -4.7650806009        2.0895413890        0.6416502421
 H         -5.7638076809        3.0216786580        1.7473220429
 C         -5.3378722811        1.0287707974        2.4410808911
 H         -6.2154573111        0.3997256673        2.5895466005
 H         -5.1857629111        1.5722943566        3.3758501516
 C         -4.0979473211        0.1451892875        2.2363512504
 H         -3.2185168211        0.6487104271        2.6499052109
 H         -4.2221897511       -0.7816181530        2.8064177796
 H         -6.0984803208        0.9959025809       -1.3772312689
 H         -7.6910953109        0.3702076006       -0.9624335796
 H         -6.3471656209       -1.5061257297       -0.7212106912
 H         -6.3674767510       -0.9295636012        0.9532736393
 O         -4.1374335809       -0.9178258492       -1.3963226605
 C         -2.8027777908       -0.8652441789       -1.7524444704
 O         -2.5686101908       -1.1908608078       -2.9346264707
 H          2.1394311191       -0.0450489604       -0.2424777393
 C          1.7093873290       -0.9808875107        0.0738382298
 C          0.4206999490       -1.3228931903       -0.3079115706
 C         -0.0909545510       -2.5500546307        0.1050959883
 C          0.6556415089       -3.3963564714        0.9010888775
 C          1.9405558689       -3.0506631618        1.2803128379
 C          2.4706966489       -1.8393897614        0.8557322691
 N          3.7704861089       -1.4583113218        1.2208219495
 S          4.7704481790       -0.7334259808        0.0917817202
 O          4.4904446691       -1.1991787196       -1.2462582502
 O          6.1110481690       -0.9788722713        0.5809606601
 C          4.4303094191        1.0090266491        0.2222684818
 C          4.1847377690        1.5566397180        1.4658687123
 C          3.9706002491        2.9221624279        1.5642403435
 C          4.0146761192        3.7145580489        0.4269859642
 C          4.2689068192        3.1502691800       -0.8133947363
 C          4.4788733192        1.7839526601       -0.9194287775
 H          4.6668354692        1.3024637510       -1.8658436979
 H          4.3029454793        3.7669701108       -1.6976430257
 H          3.8487099292        4.7773400289        0.5073529852
 H          3.7695474690        3.3642093070        2.5268232639
 H          4.1552037989        0.9127479472        2.3288319017
 H          4.2705425889       -2.1357471023        1.7781066389
 H          2.5273521288       -3.7129572524        1.8986817974
 H          0.2374502588       -4.3384941517        1.2226845267
 H         -1.0900482010       -2.8303488603       -0.2004853121
 C         -0.4150277809       -0.4223342395       -1.1858947598
 H         -0.3650275108       -0.8162776285       -2.2125823002
 C          0.0646579292        1.0155860005       -1.1932778785
 C          1.1038178093        1.4693301214       -2.1723988980
 C         -0.3222150007        1.8971540216       -2.3413436577
 H         -0.5800571307        2.9256835614       -2.1389922468
 H         -0.9029508307        1.4484791023       -3.1345917682
 H          1.8234736993        2.2069153111       -1.8504901773
 H          1.5013479993        0.7355857020       -2.8579625087
 H          0.0687748091        1.4545590796       -0.2020897681
 O         -1.4410674610        0.2204218982        1.4185811007
