  62
        -98.93713998
 C         -1.8410894228       -1.4274329114        0.3074049543
 C         -2.5449517503       -0.8092181135       -0.7535673948
 C         -3.7378885007       -0.0404121246       -0.3681406461
 C         -4.0932839948        0.0376316547        0.9268026694
 C         -5.3079146318        0.7290016696        1.4876253674
 C         -5.3513535174        2.2618438679        1.3358048126
 C         -6.1031006834        2.7531523260        0.0925875558
 H         -6.8161372531        1.9863211478       -0.2125159314
 H         -6.6876550144        3.6351369498        0.3621325066
 C         -5.2306504228        3.1450445783       -1.1039175256
 H         -5.8803449843        3.2301239541       -1.9776291740
 H         -4.7958757198        4.1305220523       -0.9211674195
 C         -4.0809173213        2.1926128152       -1.4338524005
 H         -3.2716109002        2.3287860411       -0.7119609250
 H         -3.6725047055        2.4743981335       -2.4065010779
 C         -4.4657155093        0.7003948089       -1.4515889772
 H         -5.5426255846        0.5792040202       -1.3446999307
 H         -4.1588882283        0.2494105783       -2.3973787039
 H         -5.8615257790        2.6522555934        2.2178876303
 H         -4.3363171450        2.6585466885        1.3488122347
 H         -6.1999183205        0.2950608149        1.0303180068
 H         -5.3212461045        0.4763417095        2.5498748792
 O         -3.3771408320       -0.5612342931        1.9183435744
 C         -2.2314302619       -1.2877163534        1.6383166820
 O         -1.6546858792       -1.7486844928        2.6451815229
 H          0.2045736911        0.1515760769        0.8187928559
 C          0.7342963653       -0.1467831004       -0.0781483353
 C          0.4438048003       -1.3781715386       -0.6539221722
 C          1.1431231392       -1.7570713805       -1.7915289654
 C          2.0810754715       -0.9072098721       -2.3537419038
 C          2.3501009426        0.3264068679       -1.7916580421
 C          1.6716071626        0.7056722829       -0.6396182406
 N          1.9551321069        1.9473875845       -0.0449656454
 S          3.5645311795        2.3729776116        0.1328377964
 O          3.5992652356        3.2553703915        1.2781229684
 O          4.0580726619        2.9283717743       -1.1025253258
 C          4.4135825533        0.8447220343        0.4894380703
 C          4.0416072088        0.1441386212        1.6198408303
 C          4.6610760311       -1.0641609816        1.8936743972
 C          5.6369190013       -1.5492753273        1.0361606004
 C          6.0033230034       -0.8312837845       -0.0913578686
 C          5.3855327966        0.3771704268       -0.3712322791
 H          5.6370020720        0.9659765129       -1.2381861334
 H          6.7637395933       -1.2102194792       -0.7548197566
 H          6.1136017198       -2.4927069822        1.2503751845
 H          4.3763239095       -1.6231295763        2.7707359260
 H          3.2817977828        0.5493068876        2.2694292999
 H          1.4343136618        2.1252799800        0.8007732511
 H          3.0642326547        1.0060250433       -2.2275519681
 H          2.6075667332       -1.2091930923       -3.2459853831
 H          0.9467540696       -2.7135587325       -2.2464979874
 C         -0.5953656443       -2.2447822187        0.0159012878
 H         -0.1992128937       -2.5523226418        0.9948050392
 C         -0.9563944178       -3.4849949600       -0.7742767825
 C         -0.1290018596       -4.7277014959       -0.6474417618
 C         -1.4980387446       -4.6738047623       -0.0407694089
 H         -2.2913145614       -5.2452430400       -0.4988752036
 H         -1.5820628905       -4.5967664307        1.0338141682
 H          0.0166560106       -5.3419984082       -1.5230748281
 H          0.7202239692       -4.6974461782        0.0180832836
 H         -1.3918176942       -3.2518258157       -1.7388864767
 O         -2.2032392652       -0.8981531970       -1.9608212192
