  62
        -98.94374859
 C         -1.4789348641       -1.2605293649        0.7118962252
 C         -2.5334540444       -1.1755505492       -0.2291890067
 C         -3.4235271686       -0.0111449261       -0.0868415506
 C         -3.1496353017        0.9267344809        0.8375612790
 C         -3.9385565970        2.1876759077        1.0406572624
 C         -3.4106357311        3.3371499232        0.1702359421
 C         -3.2101701511        2.9625456652       -1.2978919804
 H         -2.8526504775        3.8547285945       -1.8167107377
 H         -2.4232771598        2.2083320949       -1.3737925320
 C         -4.4688621597        2.4312252515       -1.9963658006
 H         -5.3557092799        2.6991201250       -1.4208292038
 H         -4.5592668467        2.9111987387       -2.9731315498
 C         -4.4580659131        0.9210506632       -2.2381379935
 H         -3.5283801389        0.6352020889       -2.7367183509
 H         -5.2800638239        0.6785651696       -2.9170197789
 C         -4.6252730941        0.0473395507       -0.9887832416
 H         -5.5051709809        0.3732605641       -0.4297801704
 H         -4.7946261571       -0.9792551019       -1.3267747764
 H         -4.1122280219        4.1704449180        0.2395551910
 H         -2.4513332005        3.6696903031        0.5726314337
 H         -4.9834846398        1.9942718081        0.8045333287
 H         -3.8622458678        2.4744263568        2.0908063383
 O         -2.0849684925        0.8470596614        1.6756828799
 C         -1.2392687473       -0.2466023069        1.6453324587
 O         -0.3216226080       -0.2098087501        2.4883883253
 O         -2.7486963588       -2.0149962154       -1.1420246748
 C         -0.4878171018       -2.4154129735        0.7500639290
 C          0.6158705133       -2.1187323471       -0.2349357438
 C          0.4330599418       -2.2455206879       -1.6077886071
 C          1.4450559961       -1.8966131039       -2.4844948181
 C          2.6547050754       -1.4133939335       -2.0147731582
 C          2.8412098889       -1.2750036349       -0.6465757278
 C          1.8282436085       -1.6305794946        0.2327061450
 H          1.9696855419       -1.4989818959        1.2973231480
 N          4.0632820371       -0.7485789758       -0.1647579385
 S          4.2880859693        0.8873254330       -0.4532995827
 O          4.3125121192        1.1045370935       -1.8766535029
 O          5.4809534489        1.2542953800        0.2745034907
 C          2.8609049219        1.6748831053        0.2687915031
 C          1.6885148032        1.7285039392       -0.4575210366
 C          0.5608866836        2.2700185999        0.1367248704
 C          0.6203934473        2.7388014080        1.4390935674
 C          1.8049594863        2.6760766906        2.1551246958
 C          2.9363030888        2.1342108699        1.5683003099
 H          3.8775831036        2.0659939240        2.0903000485
 H          1.8439727971        3.0360713677        3.1706093458
 H         -0.2661905535        3.1403730846        1.9040801160
 H         -0.3651009563        2.3120349292       -0.4149048957
 H          1.6750751420        1.3519411467       -1.4679819234
 H          4.1987777345       -0.9187344486        0.8228472671
 H          3.4447115827       -1.1170027197       -2.6854010057
 H          1.2899866977       -1.9985744508       -3.5480545625
 H         -0.5180938206       -2.5914764765       -1.9816717611
 H         -0.0479333606       -2.3941148277        1.7562548976
 C         -1.1155582232       -3.7763158721        0.5361165459
 C         -0.3534128202       -4.9942443960        0.9608373050
 C         -1.5686934637       -4.5655499294        1.7258516152
 H         -2.4691930179       -5.1548560785        1.6396200887
 H         -1.4276275863       -4.1266895944        2.7031560691
 H         -0.4165187236       -5.8805948408        0.3485593985
 H          0.6127578182       -4.8456628384        1.4195530598
 H         -1.7183502076       -3.8460091662       -0.3585740379
