  62
        -98.93843429
 C          2.1074659497        1.7009492535       -0.2381553828
 C          2.3931524681        0.7487661530       -1.2495968194
 C          3.4778817924       -0.1971625245       -0.9339368405
 C          4.1958205341       -0.0598802653        0.1932518807
 C          5.3296529139       -0.9429807272        0.6384986840
 C          4.8727529574       -2.2000132453        1.3916153096
 C          4.2055457812       -3.2704299428        0.5264215182
 H          4.8483629750       -3.5033970727       -0.3230077500
 H          4.1285883352       -4.1736251938        1.1349027846
 C          2.8036747563       -2.8957247093        0.0236228218
 H          2.1196782382       -3.7346615324        0.1742855481
 H          2.4125176854       -2.0632996968        0.6142603527
 C          2.7385216585       -2.5227254508       -1.4580579312
 H          2.9892132668       -3.3948634391       -2.0666199739
 H          1.7076593583       -2.2378786453       -1.6909693296
 C          3.6616965958       -1.3628834014       -1.8573567897
 H          3.3893457856       -1.0387232863       -2.8647323664
 H          4.7003863029       -1.6924087764       -1.8617702596
 H          5.7563790893       -2.6404143241        1.8591706628
 H          4.1883619273       -1.8996585253        2.1885561144
 H          5.9322448972       -1.2309789951       -0.2230639202
 H          5.9461532573       -0.3434183063        1.3116364342
 O          3.9688713538        0.9465513726        1.0798790230
 C          2.8855234148        1.7944591234        0.9194754642
 O          2.7295985197        2.6039695713        1.8566542385
 O          1.8045905676        0.6665376303       -2.3557456313
 C          0.9002184648        2.6255237065       -0.2478944706
 C         -0.1773391892        2.0348345272        0.6307377220
 C         -0.8940053624        2.8387398889        1.5107798506
 C         -1.8576562534        2.2944576874        2.3405229826
 C         -2.1292976785        0.9387621530        2.3024855593
 C         -1.4181008852        0.1244598735        1.4284494418
 C         -0.4502373175        0.6740484521        0.5991918516
 H          0.0947810659        0.0260042717       -0.0714675843
 N         -1.6529119636       -1.2652141165        1.3827413004
 S         -2.2613572814       -1.9204094324       -0.0331070902
 O         -2.4257071793       -3.3306414324        0.2387914443
 O         -1.4170867402       -1.5633360684       -1.1409164227
 C         -3.8658504068       -1.1556364784       -0.1967240747
 C         -3.9398836142        0.1399538159       -0.6682825951
 C         -5.1766049692        0.7629304830       -0.7247769250
 C         -6.3118089561        0.0833849829       -0.3095965935
 C         -6.2213748142       -1.2177679410        0.1614403194
 C         -4.9867216325       -1.8438562512        0.2249469121
 H         -4.8675387565       -2.8541419601        0.5817422709
 H         -7.1060524820       -1.7445450261        0.4810228853
 H         -7.2724162550        0.5715629972       -0.3551229506
 H         -5.2453836026        1.7742880795       -1.0916761406
 H         -3.0374008137        0.6348566669       -0.9890587845
 H         -2.1953120842       -1.6084097713        2.1637515699
 H         -2.8742328075        0.5075858133        2.9542852097
 H         -2.3996481545        2.9296544566        3.0239720584
 H         -0.6717160564        3.8945533077        1.5572743721
 H          1.2316127292        3.5599104922        0.2346670115
 C          0.3904684214        2.9934633160       -1.6317772182
 C         -0.7010311816        2.2413618250       -2.3236713354
 C         -0.9639987358        3.6186799533       -1.7989644454
 H         -1.0718769232        4.4247862041       -2.5086441353
 H         -1.5850182702        3.7130910467       -0.9210220311
 H         -0.6065212807        2.0909353017       -3.3881115474
 H         -1.1245191310        1.3884371388       -1.8157931367
 H          1.1871692489        3.3705487324       -2.2642272477
