  62
        -98.94023758
 C          1.3109823774        1.3052744546       -0.1196549616
 C          2.1761361755        0.7585008540        0.8629260170
 C          2.9659719853       -0.4261490468        0.4837260773
 C          2.8476480562       -0.9224817073       -0.7616758514
 C          3.4880520031       -2.1222067258       -1.4292229403
 C          4.6439408599       -2.8605277092       -0.7601282930
 C          5.9524975262       -2.0720574695       -0.7002632932
 H          6.6669126524       -2.6375058964       -0.0982064725
 H          6.3575833627       -1.9978923275       -1.7127667191
 C          5.8452969078       -0.6540613755       -0.1445315604
 H          6.8388586571       -0.2002278786       -0.1936960111
 H          5.1891383072       -0.0584037928       -0.7824931486
 C          5.3602408186       -0.5527897098        1.2999110080
 H          5.4666258157        0.4898664722        1.6113652482
 H          5.9979391794       -1.1603493155        1.9449977860
 C          3.8963433467       -0.9601649717        1.5345306426
 H          3.7989499760       -2.0391608030        1.6243807517
 H          3.5718670723       -0.5200001400        2.4817192313
 H          4.8277603064       -3.7579481146       -1.3570371017
 H          4.3523606569       -3.1973910587        0.2302175699
 H          3.8077486743       -1.7786523370       -2.4184539354
 H          2.6754343904       -2.8366639349       -1.6038431113
 O          2.0001229062       -0.3639467600       -1.6739427548
 C          1.2125628253        0.7396927922       -1.3889616054
 O          0.4956619692        1.0894486023       -2.3487598159
 O          2.2838971799        1.2414537705        2.0200755064
 C          0.4771303111        2.5085806259        0.2946995588
 C         -0.9177610319        2.0424158566        0.6341800885
 C         -1.3467232035        1.9659161741        1.9543280694
 C         -2.5958991107        1.4551509510        2.2629799236
 C         -3.4323784432        0.9885973045        1.2646205837
 C         -3.0061060905        1.0530356351       -0.0555125069
 C         -1.7701983335        1.5974621974       -0.3661755391
 H         -1.4426410243        1.6251662854       -1.3943418961
 N         -3.8111774681        0.4949409382       -1.0712289046
 S         -4.1946657141       -1.1203569119       -0.8239760958
 O         -4.2575972672       -1.7195101783       -2.1387472492
 O         -5.4047537989       -1.2029612005       -0.0437317479
 C         -2.8369953016       -1.7955343584        0.1228780038
 C         -1.5589506533       -1.7167809064       -0.3950028446
 C         -0.5008505619       -2.1940195092        0.3609228181
 C         -0.7340452836       -2.7430016388        1.6120939096
 C         -2.0235148736       -2.8241052215        2.1134470255
 C         -3.0855150616       -2.3422627182        1.3654461270
 H         -4.1024588065       -2.3738236734        1.7210968491
 H         -2.2023081928       -3.2532261122        3.0859962263
 H          0.0970294437       -3.1046800218        2.1965302376
 H          0.5043020369       -2.1208788137       -0.0240746936
 H         -1.3938013578       -1.2828386464       -1.3694359894
 H         -3.4112121257        0.6148725849       -1.9918694888
 H         -4.3966097324        0.5590141573        1.4842397917
 H         -2.9155837957        1.4050263814        3.2923460096
 H         -0.6823615761        2.2892701285        2.7420870007
 H          0.9429448671        2.8778940284        1.2175496348
 C          0.4779674399        3.6278029899       -0.7260320847
 C          0.0794505900        5.0049748010       -0.2902374552
 C          1.5097137875        4.7094076156       -0.6259030247
 H          1.9217653484        5.1134455295       -1.5384883440
 H          2.2218002210        4.6488886954        0.1841587872
 H         -0.4939735210        5.6149572458       -0.9712072469
 H         -0.1784435002        5.1445909140        0.7486076387
 H          0.1911347427        3.3123074934       -1.7206004750
