  62
        -98.93425384
 C         -2.1715254688       -1.0800520296       -0.4264293646
 C         -3.4516455767       -0.9983890131        0.1740809622
 C         -4.2877309676        0.1579591187       -0.1881183636
 C         -3.8015466058        1.0798690526       -1.0397419048
 C         -4.4269723721        2.3351432666       -1.6119304105
 C         -5.6871880715        2.9331391906       -0.9913562515
 C         -5.5027865603        3.4963148045        0.4172721977
 H         -4.8717968730        4.3865704640        0.3555275651
 H         -6.4809785030        3.8066753751        0.7909289369
 C         -4.8628080856        2.5485555527        1.4287833075
 H         -3.8415473446        2.3155680964        1.1189650343
 H         -4.7947995849        3.0763034824        2.3840231827
 C         -5.6184339708        1.2434955286        1.6720830302
 H         -6.6522924423        1.4627648373        1.9452599429
 H         -5.1452890831        0.7445051545        2.5219490653
 C         -5.6208568221        0.2500665519        0.4969934589
 H         -6.4043798422        0.4846152787       -0.2192930254
 H         -5.8286031653       -0.7461305662        0.8977900886
 H         -6.4955553304        2.2082732299       -1.0086790074
 H         -5.9891200804        3.7600603785       -1.6399008248
 H         -3.6324958661        3.0883232370       -1.6081648029
 H         -4.6322498484        2.1110289298       -2.6646375127
 O         -2.5604051164        0.9591218385       -1.5959695005
 C         -1.7130522881       -0.1002818143       -1.3055404061
 O         -0.6194574726       -0.0436957791       -1.8993607443
 O         -3.8874513215       -1.8654925439        0.9782244025
 C         -1.2816918841       -2.2496786185       -0.0367502501
 C         -0.2422367859       -1.7473716867        0.9362113655
 C         -0.5810167896       -1.6480622069        2.2837731070
 C          0.3230608586       -1.1550813310        3.2045414615
 C          1.5807572972       -0.7464404172        2.7979289126
 C          1.9289695018       -0.8392272056        1.4552693917
 C          1.0212538020       -1.3416920004        0.5321477260
 H          1.3024487430       -1.3792605363       -0.5070660347
 N          3.2174108106       -0.4606969533        1.0332017367
 S          3.3769431621        0.4065560529       -0.4105660579
 O          2.4817859000        1.5419311078       -0.4072886357
 O          3.2862099116       -0.5078680961       -1.5190684246
 C          5.0654510995        0.9614624226       -0.2421719008
 C          6.0840659749        0.0598596555       -0.4872168438
 C          7.3973633207        0.4734107668       -0.3310409281
 C          7.6698882091        1.7746253116        0.0648115161
 C          6.6378218311        2.6690441889        0.3046006684
 C          5.3218494187        2.2607293950        0.1521937285
 H          4.4867826827        2.9220807978        0.3195962262
 H          6.8518874349        3.6811279474        0.6081955251
 H          8.6929105868        2.0946317429        0.1841422908
 H          8.2022914536       -0.2185074268       -0.5192678762
 H          5.8236231896       -0.9370144275       -0.8020824579
 H          3.7320771694        0.0049315988        1.7700522325
 H          2.2893005394       -0.3581946201        3.5141841582
 H          0.0467404106       -1.0835639739        4.2457037454
 H         -1.5712465915       -1.9508831004        2.5940276214
 H         -1.9410939615       -2.9402614031        0.5077067837
 C         -0.6997629824       -2.9794467650       -1.2272762420
 C         -0.1464040721       -4.3584076276       -1.0322429109
 C         -1.4277929798       -4.1645285781       -1.7844733608
 H         -1.4273731846       -4.3109932802       -2.8541789507
 H         -2.3507123637       -4.4548708667       -1.3039248383
 H          0.7383125837       -4.6388676122       -1.5829809936
 H         -0.2005091398       -4.7797737828       -0.0397235426
 H         -0.1997351734       -2.3293040538       -1.9344937967
