  62
        -98.94162185
 C          2.1229298110        0.8223669569        0.2834287218
 C          2.9776704991        0.2035822760        1.2308007814
 C          3.7640830776       -0.9396250020        0.7494373724
 C          3.5824758997       -1.3757740084       -0.5100533097
 C          4.3530920212       -2.4930818991       -1.1501833961
 C          5.6049778748       -1.9647429533       -1.8649342577
 C          6.4538128075       -1.0230781806       -1.0105297507
 H          7.3230772431       -0.7382217363       -1.6070493233
 H          5.8861558508       -0.1103219751       -0.8152064810
 C          6.9223965773       -1.6233839644        0.3224057316
 H          6.8378709792       -2.7101749519        0.2889406903
 H          7.9787087339       -1.3843458469        0.4617839857
 C          6.1806956311       -1.0955637293        1.5519079122
 H          6.1847396192       -0.0026072683        1.5410378179
 H          6.7279641945       -1.4154413877        2.4425120302
 C          4.7310172435       -1.5708796614        1.7112982236
 H          4.6904132174       -2.6597738366        1.6395664736
 H          4.3927687663       -1.2792121300        2.7100579019
 H          6.2086087201       -2.8183427574       -2.1785219718
 H          5.2893239801       -1.4243436474       -2.7604459011
 H          4.6349092032       -3.2168658159       -0.3876690531
 H          3.7061004266       -2.9820822078       -1.8806482354
 O          2.6936255082       -0.8107051124       -1.3651472815
 C          1.9469871014        0.3048627777       -1.0012876747
 O          1.1848233766        0.7119840566       -1.8966074669
 H         -0.2585893055        0.0344299306        1.4618273453
 C         -0.7972355479        0.7418018493        0.8418025072
 C         -0.1286408261        1.8623560203        0.3630626579
 C         -0.8243571129        2.7533680419       -0.4421828210
 C         -2.1512029553        2.5193477485       -0.7593137105
 C         -2.8121287951        1.4037901170       -0.2800542313
 C         -2.1238807349        0.5020175069        0.5213399831
 N         -2.7874014344       -0.6315381065        1.0239738651
 S         -3.6734796314       -1.5799849774       -0.0421022188
 O         -3.7171976405       -2.8891602429        0.5738821637
 O         -3.1450584630       -1.5193943380       -1.3849197449
 C         -5.3023204569       -0.8619080828        0.0120494027
 C         -5.9118467462       -0.4484913786       -1.1562429006
 C         -7.1812445212        0.1049512785       -1.0902124645
 C         -7.8151827139        0.2332663391        0.1361192124
 C         -7.1908000630       -0.1906214854        1.2998655507
 C         -5.9225404226       -0.7456583711        1.2406928971
 H         -5.4042244068       -1.0907206558        2.1196395341
 H         -7.6871389133       -0.0897119267        2.2515530299
 H         -8.8019123019        0.6659785683        0.1850230393
 H         -7.6682285932        0.4338208043       -1.9941936561
 H         -5.3771002844       -0.5628713852       -2.0859498931
 H         -2.2059283065       -1.2124091272        1.6108898132
 H         -3.8430761382        1.2163350110       -0.5316269996
 H         -2.6782381838        3.2158268828       -1.3935012130
 H         -0.3212938555        3.6169206091       -0.8446062186
 C          1.3212638939        2.0271659010        0.7437375457
 H          1.3851770640        1.9880443386        1.8445606668
 C          1.9104033895        3.3665404131        0.3276729835
 C          3.3806918882        3.5179635753        0.0795272084
 C          2.4137282748        3.6288916965       -1.0589289452
 H          2.2420137467        4.6046788304       -1.4894779849
 H          2.3581971742        2.8216314288       -1.7721354022
 H          3.8717208599        4.4131579390        0.4304715054
 H          3.9930443370        2.6300938755        0.1450322820
 H          1.4231470354        4.1950588505        0.8324145762
 O          3.0738187500        0.5879560929        2.4273897527
