  62
        -98.94593641
 C         -2.1125700940       -1.4917726410        0.0072257509
 C         -1.8342232660       -0.3748365949       -0.8171442667
 C         -2.8965272196        0.6391980904       -0.8940207764
 C         -4.0482999772        0.4424088764       -0.2270803045
 C         -5.1906145949        1.4148182457       -0.1823264838
 C         -5.0601412419        2.3711659849        1.0114671457
 C         -3.6799808338        3.0162134543        1.1388224281
 H         -3.7168005807        3.6939403825        1.9944588259
 H         -2.9448220821        2.2428206832        1.3733228301
 C         -3.2225393315        3.7883738587       -0.1064016691
 H         -4.0819343300        4.0129898993       -0.7392415830
 H         -2.7971122936        4.7423574371        0.2116688500
 C         -2.1518373085        3.0759906377       -0.9350010767
 H         -1.3362592037        2.7577662712       -0.2810538893
 H         -1.7445021703        3.7953248188       -1.6504828922
 C         -2.6293790517        1.8565463837       -1.7336382148
 H         -3.5099170442        2.1213203755       -2.3225239623
 H         -1.8292864274        1.5720003962       -2.4232067174
 H         -5.8204701548        3.1485035033        0.9151483041
 H         -5.2622580002        1.8108268318        1.9273539101
 H         -5.2181368711        1.9792222469       -1.1123501571
 H         -6.1192737601        0.8500241364       -0.0838246033
 O         -4.2881908928       -0.6583030134        0.5311173406
 C         -3.3233120191       -1.6398446164        0.6839776705
 O         -3.6569641729       -2.5794862949        1.4341524414
 H          1.4704453250       -2.4684656714       -0.9029689329
 C          1.3975137120       -1.9797893437        0.0555264732
 C          0.1922166513       -1.9643694332        0.7366066909
 C          0.1316586993       -1.3154356070        1.9677659713
 C          1.2488052766       -0.7027382717        2.5012493176
 C          2.4505175427       -0.7124985158        1.8136394601
 C          2.5182009240       -1.3484753792        0.5820443096
 N          3.7258262636       -1.3449087104       -0.1338579633
 S          4.6266064090        0.0634731005       -0.1638432738
 O          5.3733497235        0.0040344045       -1.4014079577
 O          5.4200078041        0.1536011603        1.0377350790
 C          3.4535706884        1.4082520222       -0.2078252461
 C          2.4619162594        1.3950027091       -1.1680153263
 C          1.5533650793        2.4393186228       -1.2072078208
 C          1.6523226232        3.4765289290       -0.2928394162
 C          2.6567028253        3.4782454267        0.6627047849
 C          3.5662690410        2.4341836319        0.7088061235
 H          4.3581526908        2.3917217696        1.4391874980
 H          2.7309005645        4.2860431782        1.3730007804
 H          0.9404877296        4.2865012660       -0.3255430758
 H          0.7645362412        2.4236718133       -1.9414464025
 H          2.3921372928        0.5773874102       -1.8666775358
 H          3.6618147788       -1.7592752154       -1.0520094713
 H          3.3326855015       -0.2407418024        2.2150581979
 H          1.1859683988       -0.2082306114        3.4587316808
 H         -0.8109909964       -1.2961534899        2.4983141994
 C         -1.0693706956       -2.5817693876        0.1853744011
 H         -1.4730527769       -3.2700058916        0.9411638272
 C         -0.8746995439       -3.3422525199       -1.1093070314
 C         -0.3172103910       -4.7330071263       -1.0846200277
 C         -1.7643864393       -4.5105864223       -1.4042355130
 H         -2.0982369296       -4.6610851022       -2.4200113884
 H         -2.5022476655       -4.7734798464       -0.6602333149
 H          0.3412206797       -5.0417816952       -1.8826793453
 H         -0.0693839466       -5.1542907425       -0.1220883962
 H         -0.6110883937       -2.6986740470       -1.9406805368
 O         -0.7615517461       -0.2295505397       -1.4578460958
