  62
        -98.94017473
 C         -1.4072402810       -1.5940533056       -0.5490343614
 C         -1.1862545044       -0.2354470411       -0.8996722288
 C         -2.3385084742        0.6715874738       -0.7548910929
 C         -3.5191189831        0.1966741243       -0.3264114697
 C         -4.7518772468        1.0186474096       -0.0892236500
 C         -4.8205618730        1.5117081633        1.3625034857
 C         -3.5270448593        2.1589962039        1.8585225599
 H         -3.7061078627        2.5031240939        2.8798290037
 H         -2.7390883133        1.4032671561        1.9121644138
 C         -3.0350701123        3.3342172013        1.0027698231
 H         -3.8509370661        3.7101932073        0.3834537684
 H         -2.7305757478        4.1453729535        1.6678479422
 C         -1.8297053372        3.0104345663        0.1173877446
 H         -1.0518006171        2.5350910373        0.7225262720
 H         -1.4271714105        3.9557811935       -0.2590429712
 C         -2.1160694441        2.1178661866       -1.0973738556
 H         -2.9656869914        2.5171971399       -1.6556753140
 H         -1.2337090043        2.1424461121       -1.7432940137
 H         -5.6410138838        2.2269745041        1.4461637004
 H         -5.0450196266        0.6595661687        2.0082875372
 H         -4.7548795646        1.8658567494       -0.7721756754
 H         -5.6243498497        0.3953179247       -0.2929478738
 O         -3.7070437931       -1.1099838796       -0.0153880951
 C         -2.6666340661       -2.0158414358       -0.0952449352
 O         -2.9906244433       -3.1700858797        0.2561947348
 H          1.2743766554       -0.6077556663       -0.0424027626
 C          1.4213073214       -1.4124015468        0.6559099879
 C          0.6568783651       -2.5629402565        0.5449305470
 C          0.8618567133       -3.5886955170        1.4627041383
 C          1.8002585193       -3.4553513631        2.4703209562
 C          2.5380430894       -2.2913154020        2.5962707296
 C          2.3390399418       -1.2615631645        1.6848432205
 N          3.0671582055       -0.0654708532        1.7631747852
 S          2.3123534618        1.3858056077        1.3903276713
 O          3.1191475343        2.3872890033        2.0631704308
 O          0.9176978299        1.3698364156        1.7689209377
 C          2.5212439926        1.6055613348       -0.3637668220
 C          1.8102312213        2.6235450415       -0.9645121550
 C          1.9701578248        2.8448285121       -2.3222031572
 C          2.8384880185        2.0495127033       -3.0524713109
 C          3.5526053570        1.0376214366       -2.4315664720
 C          3.3983230205        0.8119095704       -1.0729116333
 H          3.9301754414        0.0221318287       -0.5685565662
 H          4.2237871562        0.4160181583       -3.0024921990
 H          2.9536396655        2.2154263341       -4.1122443630
 H          1.4103015288        3.6295511228       -2.8062410258
 H          1.1344626562        3.2104269058       -0.3634838234
 H          3.6685621175        0.0252591077        2.5687074204
 H          3.2567033648       -2.1781301869        3.3939130590
 H          1.9489194145       -4.2594816768        3.1752010697
 H          0.2687075954       -4.4891097746        1.3896959182
 C         -0.3721451570       -2.7146559973       -0.5526302874
 H         -0.9688147118       -3.6051505040       -0.3008326556
 C          0.3167281034       -3.0654164121       -1.8690933524
 C         -0.2660684549       -2.7187326841       -3.2046236397
 C          1.0319346504       -2.1072906026       -2.7696027733
 H          1.9415169457       -2.4497072207       -3.2412012732
 H          1.0303886522       -1.0625745829       -2.5085511552
 H         -1.1395192961       -2.0822003558       -3.2125311277
 H         -0.2630646769       -3.4683424748       -3.9822005278
 H          0.7679820880       -4.0518440211       -1.7957704789
 O         -0.1041854342        0.2417592060       -1.3279349623
