  62
        -98.93583663
 C         -2.4916251464       -1.0088999691        0.5951155222
 C         -2.5973999712        0.2821846715        1.1741098602
 C         -3.8710870119        0.9867002703        0.9809237132
 C         -4.8586273571        0.3773803001        0.3002676184
 C         -6.1900939209        0.9921807758       -0.0183400140
 C         -6.1570630620        1.7154691997       -1.3718870864
 C         -4.9703025281        2.6651208653       -1.5354965583
 H         -4.0459506757        2.0827730791       -1.5530723921
 H         -5.0675592757        3.1425006825       -2.5129348945
 C         -4.8663370774        3.7437321797       -0.4481767556
 H         -4.6549003673        4.7030766899       -0.9250294212
 H         -5.8213155202        3.8422625388        0.0691212196
 C         -3.7578157085        3.5043519805        0.5789134688
 H         -3.6301936402        4.4204521233        1.1620354864
 H         -2.8128422833        3.3121939621        0.0635046503
 C         -4.0036339850        2.3617294864        1.5724421372
 H         -4.9816471026        2.4862994397        2.0421424392
 H         -3.2371212088        2.4274745708        2.3504664467
 H         -7.0889464231        2.2714486009       -1.4889028031
 H         -6.1061874485        0.9649921021       -2.1639403230
 H         -6.9349785439        0.1958687272       -0.0598026332
 H         -6.4602192352        1.6893130946        0.7723915817
 O         -4.7326216715       -0.8670803035       -0.2208695186
 C         -3.5491106230       -1.5894586008       -0.1076345533
 O         -3.5927855013       -2.7004066025       -0.6646437862
 O         -1.6653544587        0.8181350822        1.8350638438
 C         -1.1701712567       -1.7308213855        0.7857729988
 C         -0.2248338787       -1.4583154251       -0.3571059941
 C         -0.6326532027       -1.5899449735       -1.6811092045
 C          0.2529934697       -1.3399310662       -2.7131497328
 C          1.5549628225       -0.9544400818       -2.4472698455
 C          1.9754494075       -0.8266347595       -1.1282025024
 C          1.0830018295       -1.0769175076       -0.0943138101
 H          1.4139875960       -0.9515706955        0.9256460621
 N          3.3077339907       -0.4870187665       -0.8382703043
 S          3.6467416216        0.4867288871        0.4996129076
 O          3.5427266158       -0.3135920215        1.6932808050
 O          2.8492150091        1.6914982032        0.4539202854
 C          5.3598300623        0.8619449650        0.1785178743
 C          5.7035903719        2.0918028150       -0.3493910779
 C          7.0377202439        2.3570871003       -0.6167911855
 C          7.9989831041        1.3921670716       -0.3564185442
 C          7.6384627712        0.1622875729        0.1743619243
 C          6.3069873910       -0.1086937440        0.4458459569
 H          5.9807264280       -1.0452321489        0.8669278195
 H          8.3890048388       -0.5843261382        0.3778498962
 H          9.0362277867        1.6009995458       -0.5656411174
 H          7.3213835730        3.3133873235       -1.0258728082
 H          4.9224810875        2.8132475535       -0.5284017040
 H          3.8089749387       -0.1615430740       -1.6542638533
 H          2.2426950948       -0.7572361380       -3.2555597589
 H         -0.0756747730       -1.4428558653       -3.7364616330
 H         -1.6468210627       -1.8956328887       -1.8897359552
 H         -0.7283335804       -1.2721887674        1.6859477049
 C         -1.3293877469       -3.2185437623        1.0703591560
 C         -0.9274031769       -4.2926040809        0.1092917368
 C         -0.1177400757       -4.0589842686        1.3470148069
 H         -0.1636205507       -4.7853017073        2.1442723632
 H          0.8472790695       -3.5867708917        1.2342693615
 H         -1.5536440728       -5.1695582360        0.0529177297
 H         -0.5076430312       -3.9972279160       -0.8390617702
 H         -2.2089535150       -3.4201295779        1.6736109373
