  62
        -98.94429227
 C          2.1032660422        1.4005783377        0.0217886113
 C          2.4038275112        0.4456407654       -0.9794667820
 C          3.7427629397       -0.1597056806       -0.9113570403
 C          4.5953758844        0.2134597962        0.0591402983
 C          5.9588022603       -0.3726636469        0.2801342002
 C          5.9007483082       -1.5605951205        1.2508789416
 C          4.8193649814       -2.5863714469        0.9103612825
 H          4.8933139339       -3.3920702805        1.6440721569
 H          3.8366016550       -2.1263493961        1.0390852251
 C          4.9227004384       -3.1734155583       -0.5043428624
 H          4.7780525826       -4.2543202973       -0.4457359590
 H          5.9226351115       -3.0018276909       -0.9045532754
 C          3.8834455034       -2.6386495733       -1.4914151145
 H          2.8853272620       -2.7256279095       -1.0537713792
 H          3.9052535017       -3.2709894656       -2.3831549225
 C          4.0854767779       -1.1892481146       -1.9514649564
 H          5.1094844156       -1.0548998013       -2.3051088659
 H          3.4060984143       -1.0091336398       -2.7896471255
 H          6.8772069597       -2.0483033861        1.2584864374
 H          5.7039530867       -1.1781576405        2.2551275082
 H          6.3724855522       -0.6902267301       -0.6750017194
 H          6.6009804479        0.4006866379        0.7049132528
 O          4.2829452028        1.1477932163        0.9914924748
 C          3.0386870892        1.7515987293        1.0022387548
 O          2.8854799510        2.5835629986        1.9184600972
 H         -0.2425998248       -0.2169439492       -0.8087014002
 C         -0.6925439534        0.0651038453        0.1315171655
 C         -0.2813121851        1.2331781951        0.7578818277
 C         -0.8638473816        1.5768442281        1.9720970214
 C         -1.8257554070        0.7648752341        2.5481159723
 C         -2.2262518357       -0.4036974483        1.9259340645
 C         -1.6496175378       -0.7547615457        0.7116308554
 N         -2.0498372795       -1.9379547400        0.0677533518
 S         -3.6911773292       -2.2420317581       -0.0379381841
 O         -4.1532376897       -2.8341166445        1.1935079591
 O         -3.8573207446       -3.0507303229       -1.2252625990
 C         -4.4508717078       -0.6418771295       -0.2562504407
 C         -5.3843501566       -0.1934186097        0.6555578294
 C         -5.9409141434        1.0638060598        0.4822223178
 C         -5.5520124150        1.8484791819       -0.5919842876
 C         -4.6146735343        1.3823293990       -1.5011756072
 C         -4.0571088827        0.1254178029       -1.3347792919
 H         -3.3280486034       -0.2646696706       -2.0269949259
 H         -4.3129130344        1.9937974555       -2.3363122162
 H         -5.9811344946        2.8291728341       -0.7234342469
 H         -6.6717164506        1.4276686359        1.1863131818
 H         -5.6535859677       -0.8346557093        1.4790493925
 H         -1.5843484707       -2.0955732929       -0.8141287722
 H         -2.9651977077       -1.0541789675        2.3653768466
 H         -2.2666245200        1.0430217350        3.4931059011
 H         -0.5459536922        2.4802843815        2.4717777657
 C          0.7649252005        2.1181512105        0.1225311140
 H          0.9377208640        2.9668100890        0.7972334538
 C          0.2785862189        2.6584998320       -1.2092400825
 C         -0.7331885972        3.7628371299       -1.2175630641
 C          0.6813156553        4.0384736346       -1.6294361972
 H          0.8924765896        4.2178908965       -2.6730287899
 H          1.3099118957        4.6025951423       -0.9555005701
 H         -1.0666210547        4.1431313631       -0.2640648791
 H         -1.4964591543        3.7554265448       -1.9800620789
 H          0.2113983411        1.9046920631       -1.9820278980
 O          1.6125005729        0.0933858696       -1.8962665729
