  62
        -98.93408512
 C         -1.9591435386       -1.5574316163        0.4603535561
 C         -2.0137938825       -0.3536931124        1.2056995222
 C         -3.0996941197        0.5872609478        0.8864979583
 C         -3.9717248839        0.2748041311       -0.0899920922
 C         -5.1869107888        1.0099475046       -0.6160459089
 C         -5.4331359965        2.4710510670       -0.2493935539
 C         -4.4262121013        3.4579833060       -0.8405177982
 H         -4.5914408219        3.5149977496       -1.9194120899
 H         -4.6301982477        4.4455372438       -0.4209962769
 C         -2.9542879553        3.1171616544       -0.6196002967
 H         -2.7187265063        2.1702147482       -1.1094363050
 H         -2.3581816817        3.8899151348       -1.1121652532
 C         -2.5086058825        3.0440295953        0.8392796991
 H         -1.4222986095        2.9249224897        0.8444293163
 H         -2.7510815197        3.9798744500        1.3466365507
 C         -3.0979186476        1.8790581290        1.6515426852
 H         -4.0943832336        2.1130642068        2.0180681817
 H         -2.4569899125        1.7169618973        2.5230850617
 H         -6.4187219280        2.7292667394       -0.6465491563
 H         -5.4917261761        2.5828886464        0.8293262742
 H         -5.1430713336        0.9164128483       -1.7058526634
 H         -6.0526629274        0.4213314370       -0.2927085618
 O         -3.8823434450       -0.8986746289       -0.7796236416
 C         -2.8762068589       -1.8289335695       -0.5535614571
 O         -2.9324994730       -2.8162539174       -1.3081885205
 O         -1.1865518041       -0.0807033236        2.1169625153
 C         -0.8123217610       -2.4973705092        0.7879129827
 C          0.3992914202       -2.0733712469       -0.0020701510
 C          0.3570318234       -1.9951003155       -1.3912506129
 C          1.4636930732       -1.5679307040       -2.1015352577
 C          2.6245236890       -1.1952611774       -1.4451827995
 C          2.6680317830       -1.2467770475       -0.0585997000
 C          1.5602586262       -1.6923064552        0.6526131194
 H          1.5948452515       -1.7226173055        1.7328694272
 N          3.8338996594       -0.8525143946        0.6193797305
 S          4.5910732089        0.5687936142        0.1629728401
 O          5.2918848672        0.3607294781       -1.0790836146
 O          5.4051006391        0.9371693754        1.2985693058
 C          3.2786553164        1.7538591093       -0.0683476076
 C          2.6393326939        2.2416658908        1.0541560205
 C          1.6012579605        3.1446406674        0.8960474619
 C          1.2166048858        3.5362279768       -0.3772503584
 C          1.8658547524        3.0349463638       -1.4944731599
 C          2.9085366071        2.1351018749       -1.3418546857
 H          3.4456285255        1.7323280699       -2.1846972251
 H          1.5632181849        3.3421387117       -2.4826330695
 H          0.4073330045        4.2393994767       -0.4981589056
 H          1.0942377775        3.5346982696        1.7642789632
 H          2.9689880106        1.9227165293        2.0298686038
 H          3.7574219276       -0.9073360238        1.6246080879
 H          3.4957601829       -0.8651292486       -1.9867347253
 H          1.4226991643       -1.5211370985       -3.1792816913
 H         -0.5540962670       -2.2701261519       -1.9020653392
 H         -0.5926315786       -2.3110123666        1.8512119150
 C         -1.1561070682       -3.9720866836        0.6491041790
 C         -0.5218834012       -4.8849976307       -0.3530272654
 C         -0.1655942612       -5.0069888490        1.0961105886
 H         -0.5209687208       -5.8618835133        1.6510882938
 H          0.8111645591       -4.6586946162        1.3980280808
 H         -1.1471048609       -5.6415605296       -0.8020234438
 H          0.2179218181       -4.4792370397       -1.0246896329
 H         -2.1979634319       -4.1691305826        0.8779095191
