  62
        -98.94471932
 C         -1.5245586606       -1.7543832665       -0.4617617607
 C         -1.5483184100       -0.5774656163       -1.2515437453
 C         -2.7587114878        0.2530532572       -1.1296700976
 C         -3.7442327036       -0.1219856341       -0.2965189818
 C         -5.0029851231        0.6549904602       -0.0431406319
 C         -4.8389669741        1.6164735526        1.1415426276
 C         -3.5839553610        2.4868965022        1.0672615030
 H         -3.6008621763        3.1566397263        1.9303693041
 H         -2.6948930891        1.8598799137        1.1726313840
 C         -3.4581551525        3.3151914951       -0.2186998115
 H         -3.1479572850        4.3275622639        0.0489022860
 H         -4.4293630798        3.3907048762       -0.7106192255
 C         -2.4211625568        2.7808150283       -1.2084500911
 H         -2.2329420638        3.5563287270       -1.9565263876
 H         -1.4818878175        2.5986235093       -0.6794472315
 C         -2.8184252197        1.5037547908       -1.9606373410
 H         -3.8116160222        1.6284461335       -2.3983926826
 H         -2.0998732700        1.3599117961       -2.7730066669
 H         -4.7930881919        1.0289259615        2.0615397553
 H         -5.7224750298        2.2560929573        1.1905286244
 H         -5.2671972850        1.2106943824       -0.9408422667
 H         -5.8023511581       -0.0527864114        0.1840821234
 O         -3.6868913327       -1.2556960751        0.4493401814
 C         -2.5777416670       -2.0817820591        0.3959964364
 O         -2.6496690091       -3.0809003301        1.1413997574
 H          0.4211392851       -0.2483016430        0.3518433514
 C          0.9079154048       -1.0200122039        0.9233725137
 C          0.6193693353       -2.3518105528        0.6649407780
 C          1.2350905344       -3.3306669106        1.4368424258
 C          2.1250670473       -2.9781723842        2.4359750973
 C          2.4094630897       -1.6490675287        2.6905950775
 C          1.7840564211       -0.6599393062        1.9370565311
 N          2.0089440913        0.6885941560        2.2203059220
 S          1.7207349505        1.9507716779        1.1705493719
 O          2.2310275270        3.1023527303        1.8850122143
 O          0.3286544781        1.9988199703        0.8068250060
 C          2.7689326434        1.6434570128       -0.2383836107
 C          4.1224312959        1.8658897285       -0.0605260592
 C          4.9890472477        1.6322189759       -1.1139934791
 C          4.4892916015        1.1839425666       -2.3281516749
 C          3.1305182173        0.9703281849       -2.4906246354
 C          2.2552839270        1.1967059687       -1.4376562991
 H          1.1968046157        1.0179943541       -1.5488032455
 H          2.7349249286        0.6235081478       -3.4316657404
 H          5.1616761689        1.0022731589       -3.1517678223
 H          6.0464312736        1.8009802323       -0.9883299248
 H          4.4657487321        2.2358943129        0.8918822432
 H          2.7328363594        0.8889603374        2.8918732154
 H          3.0926802964       -1.3736470626        3.4791570011
 H          2.5977334205       -3.7463696249        3.0288924358
 H          0.9952716447       -4.3698258905        1.2660875696
 C         -0.3528189682       -2.7224011556       -0.4285133171
 H         -0.7890862975       -3.6977606513       -0.1572892801
 C          0.3264499090       -2.8903264246       -1.7811125728
 C          1.6757922443       -2.3262095903       -2.0957447747
 C          1.5064805887       -3.8047000966       -1.9311190408
 H          1.5597306571       -4.4332426024       -2.8071011813
 H          1.9083997351       -4.2564419558       -1.0375583911
 H          1.8304906909       -1.9257730599       -3.0851766786
 H          2.1901308674       -1.7782125716       -1.3211828823
 H         -0.3941197352       -2.8930145258       -2.5922363393
 O         -0.6280832842       -0.2229475076       -2.0312225836
