  62
        -98.93629166
 C          2.4180889743        0.8721966227        0.2089110144
 C          3.6880336097        0.9968745195        0.8284967521
 C          4.8485849936        0.5954045696        0.0234555418
 C          4.6512777579        0.1211200119       -1.2198317391
 C          5.7357123023       -0.3782816804       -2.1291042023
 C          5.9592827426       -1.8864840307       -1.9506135002
 C          6.1119380476       -2.3206598776       -0.4927689951
 H          5.1659033161       -2.1569096343        0.0287707573
 H          6.2955013835       -3.3973424412       -0.4918081037
 C          7.2398330259       -1.6090680681        0.2676194851
 H          7.9345752414       -1.1548967901       -0.4398337750
 H          7.7992923302       -2.3523149667        0.8395682275
 C          6.7639852266       -0.5483387466        1.2619733775
 H          5.9975150234       -0.9747957082        1.9142004075
 H          7.6116951295       -0.2694564153        1.8935237121
 C          6.2085518208        0.7419774564        0.6460996429
 H          6.0921702468        1.4710543466        1.4533952191
 H          6.9223978373        1.1411909077       -0.0773568688
 H          6.8505760312       -2.1720942305       -2.5122390816
 H          5.1041328994       -2.4161399364       -2.3769255864
 H          5.4366163184       -0.1842417580       -3.1604989035
 H          6.6561132629        0.1633808841       -1.9195554023
 O          3.4201452101       -0.0037109410       -1.7745532543
 C          2.2706148768        0.3532290754       -1.0785061956
 O          1.2196419124        0.1615077084       -1.7164618384
 H         -1.3479891923        1.3134358790       -0.0389139917
 C         -1.0913785432        0.3593906115        0.3946167804
 C          0.1597324850        0.1726400285        0.9588655384
 C          0.4697853559       -1.0767000876        1.4900625969
 C         -0.4426486184       -2.1125500465        1.4435288334
 C         -1.6868263277       -1.9259094537        0.8674046932
 C         -2.0081644072       -0.6840870073        0.3383016779
 N         -3.2631229092       -0.4936367612       -0.2651724291
 S         -4.6069902847       -1.1569180347        0.5116841118
 O         -4.5272740829       -0.9104553352        1.9343818303
 O         -4.7293623783       -2.5392869840        0.1208165522
 C         -5.9293414861       -0.2050872246       -0.2103629829
 C         -6.3962965699        0.9122440556        0.4558205082
 C         -7.4088026852        1.6623444214       -0.1212820188
 C         -7.9320676554        1.2861214086       -1.3492625748
 C         -7.4529593227        0.1620959934       -2.0057132373
 C         -6.4413813735       -0.5931213919       -1.4339108006
 H         -6.0443066732       -1.4783174566       -1.9027471969
 H         -7.8642987915       -0.1283497464       -2.9589511839
 H         -8.7205567398        1.8710559045       -1.7958955975
 H         -7.7855378113        2.5347463573        0.3879986639
 H         -5.9669057795        1.1613333202        1.4130404378
 H         -3.4202332059        0.4678216002       -0.5334076653
 H         -2.4106766793       -2.7239855067        0.8230551485
 H         -0.1855832609       -3.0763079759        1.8578494324
 H          1.4440340360       -1.2268516836        1.9363164390
 C          1.2006519201        1.2615643548        1.0287084687
 H          1.5755246704        1.2994157550        2.0654933895
 C          0.6525499188        2.6473006545        0.7233283869
 C          1.5544997202        3.7409996407        0.2368767203
 C          0.5084154176        3.1733083044       -0.6724663153
 H         -0.3526004162        3.7844720204       -0.9020747808
 H          0.8191199816        2.5338677597       -1.4834376207
 H          1.4125942824        4.7364722258        0.6299407973
 H          2.5878343300        3.4890339540        0.0479175074
 H         -0.1145224529        2.9397280103        1.4346125318
 O          3.8427761960        1.4221114252        2.0046840324
