  62
        -98.93928929
 C          2.0059046769        0.8994542238        0.0280776601
 C          2.3273352758       -0.0698804024        1.0029566906
 C          2.4106990127       -1.4662116599        0.5442189844
 C          2.1691695561       -1.7504661267       -0.7493839625
 C          2.1134933272       -3.0751584413       -1.4823695064
 C          2.6976243862       -4.3408861150       -0.8596831375
 C          4.2167653925       -4.3317068251       -0.6937673966
 H          4.5060953874       -5.2406711906       -0.1620448489
 H          4.6748010684       -4.3645398073       -1.6853091182
 C          4.7914862729       -3.1228348904        0.0400843481
 H          5.8760163422       -3.2494116716        0.0948860316
 H          4.6014583682       -2.2173528805       -0.5397452388
 C          4.2755912201       -2.9164407990        1.4629887954
 H          4.8844962168       -2.1337657426        1.9229858379
 H          4.4139675371       -3.8316795059        2.0415335970
 C          2.8035974253       -2.4812025749        1.5788500752
 H          2.1304641796       -3.3352808197        1.5496901614
 H          2.6680930285       -1.9949401372        2.5495743102
 H          2.2118183564       -4.5509487872        0.0887101492
 H          2.4436585337       -5.1629770249       -1.5344549591
 H          1.0507176269       -3.2464690148       -1.6897295254
 H          2.5918558587       -2.8984199994       -2.4511048556
 O          1.8629147881       -0.7776027170       -1.6572666073
 C          1.7559544592        0.5541185888       -1.2986102138
 O          1.4575191873        1.3181892545       -2.2370980489
 H         -0.3987857846        0.9643535994        0.8554099254
 C         -0.6109407220        1.9269669884        0.4116468560
 C          0.4327642122        2.8005707216        0.1327046418
 C          0.1310763830        4.0382077447       -0.4203941771
 C         -1.1796778664        4.3700650224       -0.7179157238
 C         -2.2089101760        3.4776983435       -0.4837453601
 C         -1.9191388684        2.2442532642        0.0901150936
 N         -2.9411654655        1.3185247068        0.3686017173
 S         -2.5858424762       -0.3272038875        0.2323202500
 O         -1.9484309614       -0.7668714457        1.4493337061
 O         -1.8774554495       -0.5971572256       -0.9988985188
 C         -4.2394999976       -0.9919362164        0.1566824685
 C         -4.9555275841       -1.1151015725        1.3326694051
 C         -6.2541978452       -1.5956584752        1.2789191647
 C         -6.8126161018       -1.9423545022        0.0573622838
 C         -6.0812178649       -1.8154140438       -1.1139404199
 C         -4.7820179597       -1.3338865452       -1.0673839347
 H         -4.1719951874       -1.2236435738       -1.9498500216
 H         -6.5160401871       -2.0889781303       -2.0617336145
 H         -7.8232871790       -2.3167158294        0.0181229077
 H         -6.8247876554       -1.6978452328        2.1877683341
 H         -4.4750327032       -0.8413493359        2.2573893365
 H         -3.8084670606        1.5450991348       -0.0997300712
 H         -3.2267126320        3.7289243943       -0.7406168888
 H         -1.3999450178        5.3319043170       -1.1556458654
 H          0.9234401394        4.7372602833       -0.6323181833
 C          1.8383023365        2.3481713958        0.4462967414
 H          1.9693076575        2.3561912874        1.5392961631
 C          2.9082968638        3.2165656247       -0.1817904754
 C          3.4011182457        4.4433653643        0.5244779626
 C          4.2766739894        3.2314120634        0.4287774322
 H          5.1335273270        3.2608061075       -0.2273355686
 H          4.4267614154        2.6343950991        1.3165611027
 H          3.6613271683        5.3084647889       -0.0665537250
 H          2.9643876599        4.6767058363        1.4836969786
 H          2.8416373070        3.2355962839       -1.2639751175
 O          2.5282362409        0.2173684225        2.2158449640
