  62
        -98.93989269
 C         -1.1114976614       -1.8532297654        0.5378220973
 C         -1.8466381829       -1.5785498167       -0.6419320715
 C         -3.0053161245       -0.6823994838       -0.4774744135
 C         -3.2319229241       -0.0964213942        0.7112240015
 C         -4.3600016261        0.8511394079        0.9997308688
 C         -3.9737127847        2.3112222996        0.7285211085
 C         -3.3087117890        2.5360621387       -0.6288331087
 H         -3.1091631418        3.6056020581       -0.7216611707
 H         -2.3436893411        2.0240821908       -0.6416720859
 C         -4.1430419861        2.0748617588       -1.8314271316
 H         -4.1066499482        2.8484251247       -2.6014627486
 H         -5.1871893077        1.9591842718       -1.5383515569
 C         -3.6533635725        0.7787804747       -2.4783461015
 H         -2.5830892078        0.8537946133       -2.6875439219
 H         -4.1648082692        0.6622138497       -3.4377253563
 C         -3.9013754237       -0.5011970208       -1.6711459070
 H         -4.9506523742       -0.5459094805       -1.3708924396
 H         -3.6968822839       -1.3506480842       -2.3298181301
 H         -4.8752281175        2.9226207704        0.7990203839
 H         -3.2805655867        2.6347425129        1.5068892632
 H         -5.2170861141        0.5740137655        0.3880229325
 H         -4.6306765757        0.7467224413        2.0518180851
 O         -2.4318448992       -0.2914038152        1.7905527461
 C         -1.3811423843       -1.1917778254        1.7397544957
 O         -0.7642190369       -1.3214726252        2.8145259666
 H          0.6247536964       -0.8422917338       -1.1281267083
 C          1.4862021761       -1.1306645561       -0.5418894997
 C          1.3652904700       -2.1552286847        0.3860459497
 C          2.4837244666       -2.5140245588        1.1289675236
 C          3.6976242799       -1.8786446466        0.9302929534
 C          3.8137116970       -0.8565184474        0.0052529753
 C          2.6935659789       -0.4712512934       -0.7208978100
 N          2.7901181278        0.6211051307       -1.6117643085
 S          3.0643976356        2.1111123450       -0.8920609799
 O          2.8875573926        3.0891112170       -1.9401789432
 O          4.3560637918        2.0814565993       -0.2558014062
 C          1.7835580557        2.2988643677        0.3379551642
 C          0.7300206098        3.1524469551        0.0792063267
 C         -0.2802873640        3.2757711540        1.0193947986
 C         -0.2373208017        2.5217289254        2.1818360269
 C          0.8226631237        1.6625942519        2.4248957653
 C          1.8509217179        1.5574597908        1.5019517259
 H          2.6975834943        0.9144714753        1.6767137798
 H          0.8423934910        1.0616188957        3.3199669577
 H         -1.0320683605        2.5979003115        2.9075318304
 H         -1.0981616643        3.9549795827        0.8407797117
 H          0.7278432946        3.7100630968       -0.8437387010
 H          1.9927236155        0.6963011721       -2.2286873310
 H          4.7411867285       -0.3274765410       -0.1407171236
 H          4.5600939085       -2.1743190163        1.5079306008
 H          2.3945828883       -3.2862341824        1.8786725147
 C          0.0409045423       -2.8433174128        0.5961404793
 H          0.0396677242       -3.2328516786        1.6270330837
 C         -0.1485082624       -4.0320394901       -0.3371469794
 C          0.6263867407       -4.2093358278       -1.6046397563
 C          0.8986466504       -5.1016595082       -0.4335448996
 H          0.5777351599       -6.1312294995       -0.4814153046
 H          1.8234685078       -4.9512885699        0.1017403306
 H          1.3617540974       -3.4615052927       -1.8587175119
 H          0.1041375864       -4.6085812881       -2.4604135164
 H         -1.1811218958       -4.3647619412       -0.3576547900
 O         -1.5797360462       -2.0483244548       -1.7776573830
