  62
        -98.93796844
 C         -2.6216047612       -1.0042717173        0.5274214684
 C         -2.8757390572        0.1962214056        1.2419608514
 C         -4.1544725465        0.8636098858        0.9717158979
 C         -5.0065553572        0.3110489467        0.0894633653
 C         -6.3281068087        0.8972818992       -0.3130035332
 C         -6.1838419764        1.8062552310       -1.5413158864
 C         -5.0532087961        2.8282584790       -1.4227963256
 H         -4.0964082024        2.3009546909       -1.4038084957
 H         -5.0664101313        3.4347575721       -2.3310413218
 C         -5.1515674458        3.7439504937       -0.1945849012
 H         -4.9495103569        4.7706567468       -0.5069686926
 H         -6.1662971569        3.7208656080        0.2044252619
 C         -4.1597107516        3.4152127954        0.9229343166
 H         -3.1514673916        3.3415336610        0.5073269429
 H         -4.1611460781        4.2462501460        1.6333186816
 C         -4.4485356545        2.1350021732        1.7171155222
 H         -5.4827230707        2.1450588592        2.0674048981
 H         -3.7895395851        2.1295198782        2.5901985358
 H         -5.9886173068        1.1799156800       -2.4148643137
 H         -7.1310175553        2.3250260167       -1.6999711145
 H         -7.0070044607        0.0781247746       -0.5560282760
 H         -6.7385351582        1.4605113953        0.5229076407
 O         -4.7336607229       -0.8383022984       -0.5745256516
 C         -3.5374817703       -1.5187959525       -0.3909884619
 O         -3.4414068512       -2.5429894528       -1.0946889296
 O         -2.0681573578        0.6810056170        2.0800540130
 C         -1.3016574852       -1.6976233997        0.8198480288
 C         -0.2589376364       -1.3581981640       -0.2195392736
 C         -0.3889119963       -1.7695163627       -1.5417974367
 C          0.5856389930       -1.4530830537       -2.4707778430
 C          1.7051204783       -0.7263311355       -2.1051596429
 C          1.8459898339       -0.3125509464       -0.7875908484
 C          0.8668160651       -0.6339507247        0.1450818164
 H          0.9719728435       -0.2994382768        1.1685061178
 N          2.9708208375        0.4415218120       -0.4102764567
 S          4.4669316584       -0.0229431810       -1.0443848800
 O          4.6053991403        0.5587223449       -2.3561572951
 O          4.6109234042       -1.4593877717       -0.9723260608
 C          5.5858467644        0.7726321971        0.0911886872
 C          6.1242987246        0.0405785032        1.1324118688
 C          6.9800881530        0.6706198564        2.0221943496
 C          7.2785533180        2.0149107148        1.8580143035
 C          6.7296987051        2.7364489798        0.8081392873
 C          5.8742676965        2.1125972899       -0.0859409410
 H          5.4324001241        2.6303787201       -0.9211993074
 H          6.9665401276        3.7806999561        0.6830925891
 H          7.9457469468        2.5025680470        2.5510990813
 H          7.4106880614        0.1117440722        2.8374350947
 H          5.8719705150       -1.0044852338        1.2155365926
 H          3.0196913437        0.5846284961        0.5891340378
 H          2.4729767746       -0.4803355059       -2.8211598185
 H          0.4734571301       -1.7770233244       -3.4948968557
 H         -1.2648324967       -2.3269973953       -1.8359397163
 H         -0.9665595034       -1.2720593657        1.7756155230
 C         -1.4271674790       -3.1991966798        0.9868470275
 C         -0.3626461604       -3.9337195069        1.7431054322
 C         -1.7260456508       -3.7634220404        2.3418239008
 H         -2.3738348368       -4.6244199866        2.4085533188
 H         -1.8409373414       -3.0666923455        3.1594585726
 H         -0.0692299598       -4.9131265033        1.3979532721
 H          0.4488189407       -3.3529392609        2.1551930675
 H         -1.8719119439       -3.6939224293        0.1338539709
