  62
        -98.94255987
 C         -2.4236731680       -0.1853260521       -0.2042074877
 C         -1.5303771297       -0.4889724234        0.8487289380
 C         -1.0219763092       -1.8714868802        0.9050749473
 C         -1.3652624862       -2.7346532219       -0.0649164780
 C         -0.8798881781       -4.1467315702       -0.2392091240
 C          0.3544231084       -4.1801163500       -1.1575351239
 C          1.6926833720       -4.0181002010       -0.4390406088
 H          1.8910524023       -4.9099298980        0.1600493592
 H          2.4661245951       -3.9565354601       -1.2083134947
 C          1.7991643646       -2.7811793355        0.4571401740
 H          2.8597123956       -2.5546748105        0.5912431433
 H          1.3556126424       -1.9264300583       -0.0571507543
 C          1.1560498747       -2.9759924058        1.8377392942
 H          0.9821740376       -4.0407126900        1.9962830194
 H          1.8624907818       -2.6572299209        2.6066873375
 C         -0.1477630538       -2.2007543138        2.0844586329
 H          0.0884240075       -1.2304448898        2.5301894130
 H         -0.7510447450       -2.7472895498        2.8174162076
 H          0.3687496662       -5.1308337231       -1.6950369489
 H          0.2465691135       -3.3836984608       -1.8994949995
 H         -0.6640298408       -4.6013904253        0.7235438728
 H         -1.6890762105       -4.7007243063       -0.7197590518
 O         -2.1927828970       -2.3924735788       -1.0904848892
 C         -2.7251887768       -1.1212806747       -1.1950261998
 O         -3.4444578801       -0.9461628929       -2.2005139479
 O         -1.1563909330        0.3516360452        1.7089251411
 C         -2.9575708915        1.2249900068       -0.4048999637
 C         -1.8053088886        2.1907970547       -0.2673403169
 C         -1.7775084644        3.2710271512        0.6038516262
 C         -0.6448829685        4.0627116703        0.6958569481
 C          0.4849316121        3.7791109473       -0.0495784667
 C          0.4636379322        2.7017596070       -0.9290843032
 C         -0.6895206000        1.9470739864       -1.0591476903
 H         -0.7004258508        1.1157131497       -1.7491886858
 N          1.5910995085        2.3582438817       -1.7012032578
 S          2.2307341940        0.8144237114       -1.5928244732
 O          3.3122459288        0.7951960157       -2.5545652461
 O          1.1936281375       -0.1671957613       -1.7817467440
 C          2.9201278649        0.6916663525        0.0494750705
 C          4.2922425452        0.6042259234        0.1858209644
 C          4.8385235053        0.5198413159        1.4561150851
 C          4.0067468764        0.5315766204        2.5655835748
 C          2.6326943450        0.6268792245        2.4111734087
 C          2.0777386314        0.7071424343        1.1430529855
 H          1.0092972433        0.7725630421        1.0080200926
 H          1.9783316760        0.6394004398        3.2683729436
 H          4.4299185227        0.4655542836        3.5555597447
 H          5.9073954126        0.4450303793        1.5759411811
 H          4.8972635996        0.5981258625       -0.7063658403
 H          2.3417254525        3.0334009663       -1.6550089079
 H          1.3777172207        4.3779970839        0.0497727077
 H         -0.6334929234        4.8984138838        1.3789244921
 H         -2.6294681269        3.4776984005        1.2305210454
 H         -3.2949926315        1.2514990731       -1.4548507549
 C         -4.1643497189        1.5803737883        0.4488296602
 C         -5.1029119263        0.5159544588        0.9319302600
 C         -4.2405692446        1.2543887064        1.9088301981
 H         -4.7134445771        1.9684719594        2.5671479187
 H         -3.4018361393        0.7400779514        2.3490157703
 H         -6.1627861780        0.7217084687        0.9173344602
 H         -4.8543331405       -0.5099264080        0.7000375403
 H         -4.6220516223        2.5125698359        0.1318522478
