  62
        -98.94013511
 C         -2.2326944577       -0.8754691894        0.5196480452
 C         -2.3504451316        0.0667054175       -0.5323592914
 C         -3.3035157357        1.1620350912       -0.2990556283
 C         -3.9301863319        1.2699375945        0.8854410355
 C         -4.9144215602        2.3388462693        1.2756281827
 C         -6.3525083678        2.0561817076        0.8193792982
 C         -6.6014065847        2.2111682846       -0.6815301710
 H         -6.2402502773        3.1864667658       -1.0092456276
 H         -7.6830904202        2.1977889873       -0.8291909416
 C         -5.9717073863        1.1097754788       -1.5459225214
 H         -6.7025543891        0.7585261516       -2.2776912387
 H         -5.7150390862        0.2545134365       -0.9163842484
 C         -4.7280094763        1.5457378013       -2.3208354928
 H         -5.0005877253        2.3126776834       -3.0489856299
 H         -4.3461659243        0.6813677076       -2.8701630937
 C         -3.5937172233        2.0882753770       -1.4411325641
 H         -3.8459227270        3.0821498046       -1.0722117328
 H         -2.6887234987        2.1578966248       -2.0495866589
 H         -7.0048253167        2.7547829073        1.3484064898
 H         -6.6258900674        1.0456189611        1.1321223296
 H         -4.9026241078        2.3892721405        2.3666647465
 H         -4.5878914685        3.3009134466        0.8797575772
 O         -3.7120205014        0.3990935653        1.9080570197
 C         -2.8797762489       -0.6967812284        1.7445114260
 O         -2.7846696699       -1.4199753049        2.7575577300
 H          0.2842277504       -0.2646926121        1.4235138971
 C          0.7282740285       -0.7124226361        0.5411591441
 C          0.0171197102       -1.6881314104       -0.1481185971
 C          0.5978647034       -2.2566960920       -1.2732291996
 C          1.8515008193       -1.8489979952       -1.6958093217
 C          2.5502262500       -0.8718457229       -1.0120688780
 C          1.9789506008       -0.2959966363        0.1153979741
 N          2.6819324698        0.7079134074        0.8113367636
 S          4.2024209827        0.2992741914        1.4025637710
 O          4.2925878503       -1.1144420748        1.6883624050
 O          4.4318899030        1.1951999567        2.5153664406
 C          5.3104773382        0.7245002524        0.0757814486
 C          6.1191384418       -0.2460234669       -0.4824124676
 C          6.9793545872        0.1088090892       -1.5099852743
 C          7.0155611154        1.4204780746       -1.9578727406
 C          6.1986756996        2.3838042336       -1.3845159473
 C          5.3372588260        2.0360667455       -0.3562629742
 H          4.6896002376        2.7538176075        0.1190135332
 H          6.2301225596        3.4028728295       -1.7350328016
 H          7.6848741244        1.6942016934       -2.7581336116
 H          7.6154307897       -0.6384017514       -1.9566105089
 H          6.0520342569       -1.2536855930       -0.1045929116
 H          2.1366628589        1.1434137990        1.5416351284
 H          3.5228083418       -0.5465468827       -1.3436169351
 H          2.2880511042       -2.2957596297       -2.5760295752
 H          0.0617807309       -3.0054631073       -1.8325514644
 C         -1.3303962468       -2.0909395037        0.4004911925
 H         -1.1729898510       -2.4297696277        1.4387418809
 C         -1.9622575760       -3.2597036568       -0.3417236819
 C         -3.4502060939       -3.4397233673       -0.3718944148
 C         -2.7131728347       -3.0838066182       -1.6260412529
 H         -2.6076230938       -3.8418087748       -2.3883360080
 H         -2.8078136236       -2.0829631381       -2.0152965948
 H         -4.0556397571       -2.6802448180        0.1019029836
 H         -3.8477397067       -4.4384291654       -0.2700816076
 H         -1.3744636228       -4.1668721912       -0.2398845652
 O         -1.7053398010        0.0097607892       -1.6093468752
