  62
        -98.94025990
 C         -1.7461499271       -0.8185446587        0.1280243230
 C         -3.0508199256       -1.0631077612        0.6115788222
 C         -4.0070193384        0.0596950812        0.5495937021
 C         -3.5855952570        1.2410629932        0.0604553868
 C         -4.3815372271        2.5038947532       -0.1348955368
 C         -5.3085606421        2.4350841808       -1.3595062915
 C         -6.0741998961        1.1235322360       -1.5138774341
 H         -6.6013681286        1.1575361108       -2.4710562118
 H         -5.3630531428        0.2969781861       -1.5664318421
 C         -7.1046968920        0.8392151602       -0.4236735565
 H         -7.6291009061       -0.0778054024       -0.7045455517
 H         -7.8386615249        1.6480431241       -0.4050168185
 C         -6.5498504082        0.6543680799        0.9901793564
 H         -7.3509344248        0.2266534746        1.6002093862
 H         -6.2973435503        1.6106407089        1.4402565254
 C         -5.3683029013       -0.3053517137        1.0911842164
 H         -5.2089028500       -0.5508440845        2.1482607078
 H         -5.6367478861       -1.2549315049        0.6141979531
 H         -6.0133390687        3.2665486297       -1.3062525754
 H         -4.6958661309        2.5686520894       -2.2544618637
 H         -4.9440980381        2.7336640988        0.7650275589
 H         -3.6597105598        3.3084437003       -0.2911677495
 O         -2.3102069066        1.4338816839       -0.3833613791
 C         -1.3647434840        0.4259564858       -0.3690039479
 O         -0.2483824100        0.7582613572       -0.8097869374
 O         -3.4116043009       -2.1773144946        1.0793542061
 C         -0.7276459259       -1.9432900271        0.1458130560
 C          0.4872022285       -1.5309916360        0.9384226018
 C          0.3129988117       -1.0815189796        2.2459673837
 C          1.3943002724       -0.6925823827        3.0114043568
 C          2.6750488653       -0.7355459518        2.4868051748
 C          2.8610280659       -1.1869755703        1.1869645858
 C          1.7723979807       -1.5914732403        0.4243566195
 H          1.9508712047       -1.9306964585       -0.5816672044
 N          4.1524145654       -1.2676995972        0.6304576584
 S          4.4934497063       -0.4358244928       -0.7831190655
 O          3.6387992975       -0.8974959197       -1.8447121625
 O          5.9149496571       -0.6210864787       -0.9813367931
 C          4.1710441232        1.2731950830       -0.3856836980
 C          5.2402135412        2.0775391405       -0.0384905935
 C          5.0021060981        3.3897056379        0.3348842606
 C          3.7016865720        3.8712343745        0.3652705207
 C          2.6410740002        3.0491533259        0.0187553675
 C          2.8704651274        1.7350820987       -0.3612610765
 H          2.0512361663        1.0891045043       -0.6358423691
 H          1.6254343895        3.4117616268        0.0391654502
 H          3.5127006628        4.8918431323        0.6591983227
 H          5.8268126081        4.0305251547        0.6024674375
 H          6.2336969130        1.6608284707       -0.0805918110
 H          4.8914214443       -1.0961169328        1.2985431708
 H          3.5223568852       -0.4267894599        3.0802521161
 H          1.2408759823       -0.3468501529        4.0224808507
 H         -0.6886505870       -1.0413086049        2.6522580578
 H         -1.2179882542       -2.7739059341        0.6752672581
 C         -0.4107246586       -2.3888853676       -1.2660534265
 C          0.0469460715       -3.7916639779       -1.5272278893
 C         -1.3260501151       -3.3608777620       -1.9454441617
 H         -1.5291659440       -3.2293591075       -2.9977567222
 H         -2.1712615596       -3.7240990176       -1.3789968493
 H          0.7919539073       -3.9540486477       -2.2917884985
 H          0.1341869929       -4.4545768828       -0.6796428515
 H          0.0129372745       -1.5959000114       -1.8735131305
