  62
        -98.94135428
 C         -2.1635561924       -0.7338669518       -0.3315001553
 C         -3.3657937427       -0.8672210898        0.4091238856
 C         -4.0299354848        0.3826541326        0.7920322395
 C         -3.4607825360        1.5613790107        0.4812769621
 C         -3.9931656872        2.9233238658        0.8357112014
 C         -5.0488615284        3.4561158512       -0.1429201669
 C         -6.4157689984        2.7758452861       -0.0581950743
 H         -6.7587206664        2.7807878626        0.9768559521
 H         -7.1132565096        3.3859860287       -0.6354430401
 C         -6.4443586325        1.3419879660       -0.6056079893
 H         -5.5618125046        1.1714661733       -1.2263138823
 H         -7.3177125952        1.2152903010       -1.2492150506
 C         -6.5111933588        0.2548550054        0.4670786923
 H         -6.4900695127       -0.7183805501       -0.0297117272
 H         -7.4545638022        0.3344933393        1.0116549684
 C         -5.3589886319        0.2947796219        1.4796591388
 H         -5.4886385973        1.1322517475        2.1649421338
 H         -5.3741844788       -0.6340361344        2.0550873342
 H         -4.6591345464        3.3665172755       -1.1594913889
 H         -5.1818153320        4.5193926692        0.0696392011
 H         -3.1379577086        3.6026443102        0.8249166772
 H         -4.4067986929        2.9032031802        1.8444473513
 O         -2.2867128343        1.6485425461       -0.1968669620
 C         -1.6180303339        0.5138025211       -0.6348398461
 O         -0.5766767103        0.7624134352       -1.2732345722
 O         -3.8592308165       -1.9796126906        0.7340593560
 C         -1.4391421640       -2.0061582220       -0.7431411385
 C         -0.1802361856       -2.1024134956        0.0824096239
 C         -0.2422965904       -2.6477789275        1.3616991557
 C          0.8725996823       -2.6598735769        2.1791553624
 C          2.0692945598       -2.1174221184        1.7439518419
 C          2.1374726249       -1.5641111451        0.4729497403
 C          1.0244102583       -1.5756520425       -0.3566516022
 H          1.0871501673       -1.1263549003       -1.3349939328
 N          3.3463402369       -0.9881461979        0.0275758145
 S          4.0425050439        0.1261531696        1.0941817507
 O          4.8306334934       -0.6040065098        2.0568030783
 O          3.0277842370        0.9964724584        1.6463312669
 C          5.1155760383        1.0346653961       -0.0004508991
 C          4.5841319035        2.0862771415       -0.7233592206
 C          5.4062086989        2.7820678020       -1.5955945370
 C          6.7367613032        2.4143102947       -1.7315248771
 C          7.2545589264        1.3559780183       -1.0001690816
 C          6.4383570520        0.6561657747       -0.1254655862
 H          6.7959399055       -0.1680369237        0.4691728668
 H          8.2895539774        1.0746472604       -1.1081600952
 H          7.3732156963        2.9587362192       -2.4110737916
 H          5.0052877518        3.6057132567       -2.1643217007
 H          3.5455933991        2.3435177838       -0.5816120551
 H          3.2260197654       -0.5575811437       -0.8805502349
 H          2.9407180943       -2.0929469346        2.3785277021
 H          0.8091329762       -3.0859553256        3.1693497658
 H         -1.1841671381       -3.0433108451        1.7158410447
 H         -2.1053932110       -2.8271895476       -0.4466983999
 C         -1.2048255649       -2.0833312620       -2.2368863151
 C         -0.8139158405       -3.3947978561       -2.8478200227
 C         -2.1807448029       -2.8318777041       -3.0924690559
 H         -2.4109177128       -2.4409092491       -4.0722468973
 H         -3.0217915564       -3.2980385370       -2.6005355684
 H         -0.1041043881       -3.3946125426       -3.6606201841
 H         -0.7256458877       -4.2432777887       -2.1863907319
 H         -0.7764574284       -1.1805693254       -2.6541574109
