  62
        -98.93961388
 C          2.4031763425        1.1823157633       -0.0612275693
 C          3.0812799835        0.3363568039        0.8449416487
 C          3.5775774898       -0.9409194894        0.3063734724
 C          3.3456577214       -1.2374652146       -0.9844108540
 C          3.6912693707       -2.5130847935       -1.7010441744
 C          2.4960770654       -3.4817048542       -1.6782278614
 C          2.4216801604       -4.3848355901       -0.4475270256
 H          1.4668552512       -4.9141501459       -0.4926422579
 H          3.2164912675       -5.1320015133       -0.5006046939
 C          2.5167022694       -3.6645581000        0.9002402636
 H          1.9044321585       -2.7601398871        0.8735815311
 H          2.0842992488       -4.3195482763        1.6596647187
 C          3.9590776657       -3.3199803338        1.3020472746
 H          4.6448622951       -3.8695561544        0.6575235652
 H          4.1414504509       -3.6702842718        2.3199681432
 C          4.3139689614       -1.8245080416        1.2760780753
 H          4.1108898676       -1.3858189081        2.2581183417
 H          5.3891324559       -1.7165616194        1.1001700719
 H          1.5791806394       -2.8894273470       -1.7525128760
 H          2.5436523336       -4.1198899733       -2.5630021143
 H          3.8998434384       -2.2431838094       -2.7382240816
 H          4.5769280010       -2.9708812833       -1.2703993561
 O          2.6827178526       -0.3966623994       -1.8237727533
 C          2.1753797490        0.8154237718       -1.3879400841
 O          1.5655063669        1.4610486520       -2.2600484179
 O          3.2491266506        0.6273977818        2.0619995133
 C          1.8076662339        2.4825731472        0.4529528930
 C          0.3045918347        2.3655465498        0.3861309449
 C         -0.5184434617        3.2500803500       -0.2963611183
 C         -1.8838948766        3.0269940124       -0.3614231446
 C         -2.4553876476        1.9248713686        0.2478263843
 C         -1.6409453491        1.0400405621        0.9427943224
 C         -0.2787747367        1.2710440229        1.0147234471
 H          0.3543486383        0.5741838715        1.5517316328
 N         -2.2152350000       -0.1039237199        1.5496428947
 S         -2.6763806913       -1.2927325722        0.4445718709
 O         -2.7480093929       -2.5198103108        1.2085900119
 O         -1.8045949224       -1.3078261414       -0.7095466320
 C         -4.3178900523       -0.7934065107       -0.0238219705
 C         -4.5708813705       -0.3841018880       -1.3179436011
 C         -5.8558288992        0.0141419714       -1.6535973905
 C         -6.8569347604       -0.0031077805       -0.6942546676
 C         -6.5855889727       -0.4181169854        0.6013462215
 C         -5.3039336734       -0.8184495875        0.9434178095
 H         -5.0476834340       -1.1527759773        1.9348450572
 H         -7.3668633925       -0.4298064312        1.3440427475
 H         -7.8548657231        0.3092696066       -0.9585855426
 H         -6.0682035585        0.3379853160       -2.6597994930
 H         -3.7579056404       -0.3805624933       -2.0266505379
 H         -1.5972896762       -0.5277446056        2.2292750519
 H         -3.5166990562        1.7452506359        0.1927101219
 H         -2.5109767581        3.7192840350       -0.9019393835
 H         -0.0893597039        4.1056818607       -0.7910750098
 H          2.1007999834        2.5398337023        1.5115880467
 C          2.3702742814        3.6815554367       -0.2768371994
 C          2.3606811253        5.0278751319        0.3818021061
 C          3.6519876103        4.2884457693        0.2069868616
 H          4.3597470622        4.6475904508       -0.5248306536
 H          4.1128326871        3.8469801040        1.0786688394
 H          2.1838501502        5.8995457038       -0.2295802676
 H          1.9454844372        5.0938229281        1.3759962697
 H          2.2144076613        3.6310884439       -1.3480575153
