  62
        -98.94083977
 C         -2.5734482630       -0.2260934422       -0.4023538604
 C         -2.0071917249       -0.7333097595        0.7895722634
 C         -1.3638987280       -2.0599461410        0.7111040069
 C         -1.3930648335       -2.7266404948       -0.4575677478
 C         -0.8058034247       -4.0736582584       -0.7936337521
 C          0.7152453810       -4.0315781156       -0.9847319416
 C          1.4772865223       -3.3280958278        0.1341447067
 H          2.5392198721       -3.3486853139       -0.1281264096
 H          1.1825352778       -2.2773552523        0.1667553541
 C          1.3242796582       -3.9511664262        1.5205950736
 H          1.5993594322       -5.0072401086        1.4718535393
 H          2.0414826240       -3.4475060263        2.1731138642
 C         -0.0590851877       -3.8287960882        2.1687734659
 H         -0.7383073225       -4.6011155134        1.8155732218
 H          0.0696614047       -3.9963176613        3.2418966862
 C         -0.7088991221       -2.4581844490        2.0103104569
 H         -1.4849235835       -2.3403737048        2.7758242753
 H          0.0297829641       -1.6752755696        2.2219673617
 H          0.9286526067       -3.5000230582       -1.9158274391
 H          1.0755605137       -5.0575518195       -1.0864032746
 H         -1.0744351695       -4.8033682745       -0.0355273025
 H         -1.2654035722       -4.3839275008       -1.7351784570
 O         -1.9991721141       -2.2161439103       -1.5710097676
 C         -2.5531162055       -0.9523146975       -1.5894428745
 O         -3.0036572110       -0.5974774130       -2.7003178932
 H         -0.5244094585        1.0421062157       -0.9800719142
 C         -0.7460653484        1.9020948600       -0.3649525363
 C         -2.0577820444        2.1541800141        0.0133555351
 C         -2.3176789008        3.2802911776        0.7843215971
 C         -1.2811666953        4.1032062772        1.1908561759
 C          0.0301082992        3.8114348895        0.8621166323
 C          0.2980099627        2.6964052723        0.0765569365
 N          1.6149346982        2.3512787497       -0.2888498173
 S          1.9918247159        0.7000406792       -0.2203013468
 O          1.5284114868        0.0625153771       -1.4279137916
 O          1.5349076498        0.1399607757        1.0298132603
 C          3.7734492523        0.7776124441       -0.2425517612
 C          4.4821676722        0.5761851281        0.9262557275
 C          5.8653163182        0.6654416424        0.8955331871
 C          6.5116819764        0.9567421250       -0.2960904734
 C          5.7864792320        1.1556513893       -1.4618715828
 C          4.4039087976        1.0655634465       -1.4383551301
 H          3.7981370201        1.2019065514       -2.3190742498
 H          6.2923743905        1.3789985361       -2.3872327603
 H          7.5877035944        1.0266425560       -0.3174864068
 H          6.4313448328        0.5077233824        1.7993709317
 H          3.9354105767        0.3464935343        1.8267449423
 H          2.3037210199        2.8897384201        0.2211050493
 H          0.8387244018        4.4362904633        1.2102195695
 H         -1.4961597731        4.9726262879        1.7936137706
 H         -3.3300701847        3.5056515967        1.0780568497
 C         -3.1284086746        1.1859915636       -0.4338156227
 H         -3.3691492590        1.3956848826       -1.4872845987
 C         -4.3983744988        1.2818432329        0.3870239694
 C         -5.4903159119        2.2283585872       -0.0100033167
 C         -5.6739181467        0.7528775779       -0.1943439064
 H         -6.3589642600        0.2298761069        0.4557417781
 H         -5.6281772034        0.3498190559       -1.1958912336
 H         -6.0554927930        2.7187229060        0.7682452939
 H         -5.3342711096        2.8308213691       -0.8921643682
 H         -4.2200160483        1.1132779056        1.4429028211
 O         -2.0322451256       -0.1053146184        1.8815512689
