  62
        -98.93344504
 C         -2.5782454574       -1.2671021946        0.0620405518
 C         -2.7340865234       -0.1639950717       -0.8068144343
 C         -4.0924845680        0.4059436474       -0.9184487642
 C         -5.0911193944       -0.1541754093       -0.2106821434
 C         -6.5316144966        0.2765193533       -0.1342301128
 C         -6.7303025427        1.5170002829        0.7524880976
 C         -5.6970225941        2.6230808114        0.5531424410
 H         -5.8758234141        3.3858013898        1.3157891341
 H         -4.6984517041        2.2185572905        0.7300082920
 C         -5.7324100471        3.3096005666       -0.8101799307
 H         -6.7174801524        3.7575138913       -0.9595908606
 H         -4.9994673901        4.1200834789       -0.7837602836
 C         -5.4158268665        2.4218222918       -2.0151785219
 H         -5.2501249660        3.0830500116       -2.8708409941
 H         -6.2644741604        1.7933103062       -2.2711936728
 C         -4.1548233636        1.5750414863       -1.8716707197
 H         -3.3147436016        2.2251248910       -1.6011602736
 H         -3.8964815645        1.1668339151       -2.8563494320
 H         -6.6762229861        1.1971722117        1.7960444326
 H         -7.7309551907        1.9135892706        0.5729781396
 H         -6.9237099443        0.4454280229       -1.1326205587
 H         -7.0855736435       -0.5561985993        0.3046095290
 O         -4.8921650961       -1.2248265366        0.6116168839
 C         -3.6487148172       -1.8008837997        0.7768432155
 O         -3.6222336706       -2.7629392157        1.5720029510
 O         -1.7835685645        0.3354127959       -1.4645907605
 C         -1.2113956095       -1.9004704672        0.2462316046
 C         -0.2292654297       -0.8642747514        0.7377842948
 C         -0.5711872792       -0.0940984413        1.8465838316
 C          0.2936457933        0.8654456884        2.3354865284
 C          1.5198647304        1.0806799278        1.7307693568
 C          1.8762951903        0.3114593882        0.6325170492
 C          1.0084044871       -0.6621171546        0.1495678564
 H          1.3007752604       -1.2522737459       -0.7049060342
 N          3.1115175867        0.5326522757       -0.0012351600
 S          4.4643417501        0.7939130725        0.9742271696
 O          4.5110440320       -0.1912285636        2.0319016449
 O          4.4679142955        2.1715407294        1.3983926713
 C          5.7795490579        0.5174087797       -0.1958168899
 C          6.1559225037        1.5525987650       -1.0304724274
 C          7.1597094230        1.3315691536       -1.9599465560
 C          7.7658185504        0.0864854124       -2.0397029711
 C          7.3777506845       -0.9424025537       -1.1946941669
 C          6.3737979184       -0.7285421341       -0.2633569666
 H          6.0467385268       -1.4963433322        0.4194454389
 H          7.8529094075       -1.9081473552       -1.2574499177
 H          8.5477749538       -0.0824414228       -2.7630985155
 H          7.4661175147        2.1293269170       -2.6171747150
 H          5.6626486148        2.5048967014       -0.9267680320
 H          3.3021023759       -0.1535883316       -0.7185095482
 H          2.2034823359        1.8280066208        2.1002350539
 H          0.0117449854        1.4556750865        3.1950040343
 H         -1.5308257694       -0.2578845398        2.3192748400
 H         -1.3313939449       -2.6551400923        1.0375163054
 C         -0.7844525674       -2.5961586431       -1.0293776578
 C          0.1492424747       -3.7671108175       -0.9746560346
 C         -1.2975988326       -3.9764600666       -1.3040974006
 H         -1.5650379324       -4.2351415685       -2.3176084894
 H         -1.9363030034       -4.4245019092       -0.5566952462
 H          0.8741021980       -3.8880502621       -1.7657038303
 H          0.4982043444       -4.0828353407       -0.0029442231
 H         -0.7083904434       -1.9145285510       -1.8688367273
