  62
        -98.94033072
 C         -0.2202369995       -1.8349959541        0.7095028363
 C          0.8142710268       -2.4285713382       -0.0565491853
 C          2.1832776282       -1.9453329736        0.1774106074
 C          2.3904483077       -0.9834279083        1.0918551809
 C          3.6944375001       -0.3588335912        1.5216258951
 C          4.6949749891        0.0221482643        0.4218395909
 C          4.0737686388        0.4556966351       -0.9144880163
 H          3.0004389903        0.6311243176       -0.8099339374
 H          4.5239889407        1.4009798943       -1.2260111813
 C          4.2998629900       -0.5623361926       -2.0348525750
 H          4.1830115922       -0.0538655782       -2.9950489048
 H          5.3270360099       -0.9310967466       -1.9790930827
 C          3.3368347413       -1.7479711383       -2.0338876549
 H          2.3312645265       -1.3962963380       -2.2839399701
 H          3.6448014821       -2.4357676490       -2.8256900274
 C          3.2474355848       -2.5240949219       -0.7090518306
 H          4.2128998215       -2.5622542920       -0.2094775367
 H          2.9302960803       -3.5453946695       -0.9373446916
 H          5.3049944966        0.8361147577        0.8178259986
 H          5.3691054655       -0.8139114829        0.2390842411
 H          3.4096149046        0.5343280988        2.0826065868
 H          4.1820574159       -1.0396914505        2.2255829598
 O          1.3736787783       -0.4523103960        1.8224551682
 C          0.0503210354       -0.8235508031        1.6305399494
 O         -0.7471464942       -0.1801846726        2.3401836072
 O          0.5998401857       -3.3415447466       -0.9004588006
 C         -1.6375452934       -2.2623853768        0.3742459945
 C         -2.1981251395       -1.3822515307       -0.7213025671
 C         -3.0069265636       -1.9002369914       -1.7265600682
 C         -3.4700061139       -1.0861253167       -2.7450952037
 C         -3.1072242745        0.2483571046       -2.8041935855
 C         -2.3003027712        0.7740088714       -1.8029147012
 C         -1.8869369272       -0.0325029956       -0.7546230875
 H         -1.2792067235        0.3981198815        0.0239401363
 N         -1.8730142523        2.1104247577       -1.8164285148
 S         -0.3067148698        2.4467311329       -1.3148860765
 O          0.0208192692        3.6952941954       -1.9756912135
 O          0.5894134148        1.3462257652       -1.5862587681
 C         -0.4125971259        2.7521245934        0.4343177802
 C          0.7422722171        2.6226844874        1.1785015895
 C          0.6994132450        2.8894230403        2.5365033949
 C         -0.4920819536        3.2829101264        3.1232406146
 C         -1.6414167152        3.4146878977        2.3607610981
 C         -1.6053844062        3.1508883584        1.0012871398
 H         -2.4847224161        3.2297181102        0.3833647490
 H         -2.5688584754        3.7130512331        2.8228509300
 H         -0.5256383799        3.4785679299        4.1834905368
 H          1.5909498586        2.7764043555        3.1326819436
 H          1.6451899578        2.2968056685        0.6852551573
 H         -2.1226061529        2.6372532436       -2.6408939655
 H         -3.4352450625        0.8743562935       -3.6199275464
 H         -4.0979881970       -1.5005617853       -3.5190255127
 H         -3.2561444955       -2.9505743695       -1.7189772897
 H         -1.5521632245       -3.2799882779       -0.0326934959
 C         -2.5805206773       -2.2958108963        1.5604604841
 C         -3.7438191250       -3.2399336598        1.5536040974
 C         -2.5813919242       -3.4894392936        2.4659371131
 H         -2.7062020810       -3.3287792773        3.5258643772
 H         -1.9076812987       -4.2986838948        2.2240214244
 H         -4.6751509549       -2.9086462988        1.9860645660
 H         -3.8618587989       -3.8900525672        0.7003088545
 H         -2.7193859737       -1.3257057664        2.0192660684
