  62
        -98.93574932
 C         -2.2278787588       -0.8091834813        0.0604843947
 C         -3.4185388992       -1.0003561358        0.8058686347
 C         -4.3880450389        0.1111803352        0.8392098970
 C         -4.0723946301        1.2591866764        0.2124539126
 C         -4.9000798506        2.5100050156        0.0814344628
 C         -6.0310737549        2.3670000608       -0.9499283503
 C         -6.8061897561        1.0540222221       -0.8761600858
 H         -6.1124410691        0.2211713462       -1.0046701849
 H         -7.4998263405        1.0306590001       -1.7208205561
 C         -7.6176031748        0.8476416422        0.4006559255
 H         -8.1856697277       -0.0779573659        0.2772264549
 H         -8.3343701095        1.6651772571        0.5050701052
 C         -6.8112250202        0.7397084501        1.6966840517
 H         -7.4850337776        0.3540476563        2.4673294169
 H         -6.4817545919        1.7177497166        2.0370122241
 C         -5.6284153883       -0.2214373032        1.6332763773
 H         -5.9749199272       -1.1926441354        1.2617968328
 H         -5.2796568928       -0.4134453171        2.6551335672
 H         -5.5889835359        2.4370655676       -1.9469519875
 H         -6.7180344733        3.2059209563       -0.8265790569
 H         -4.2226375819        3.2995835754       -0.2517031006
 H         -5.2938975933        2.8000654377        1.0510637605
 O         -2.8954848790        1.4171856179       -0.4558802584
 C         -1.9497445854        0.4094602995       -0.5603676471
 O         -0.9451500137        0.7366110012       -1.2206248507
 O         -3.6742318318       -2.0689377249        1.4232149380
 C         -1.2368694284       -1.9605920375        0.0319865353
 C          0.1287427256       -1.4687436071        0.4349342215
 C          0.4172064335       -1.2776553083        1.7828706835
 C          1.6451508026       -0.7808389937        2.1770367861
 C          2.6054615247       -0.4526277081        1.2357901530
 C          2.3180818790       -0.6179523265       -0.1120121292
 C          1.0941917324       -1.1445971719       -0.5041330815
 H          0.8757993099       -1.2591961759       -1.5544000302
 N          3.2781660583       -0.2772440130       -1.0783973577
 S          4.1625741027        1.1356674309       -0.8924879467
 O          3.4384964331        2.1470435662       -0.1585108498
 O          4.5881075218        1.4894362460       -2.2296280363
 C          5.5874914404        0.6080396199        0.0398926421
 C          5.9472239575        1.2813367455        1.1908171890
 C          7.0643650285        0.8584977155        1.8945454391
 C          7.7996534463       -0.2237655305        1.4364115219
 C          7.4277296081       -0.8872108489        0.2765788279
 C          6.3125705224       -0.4689345535       -0.4315001522
 H          5.9921484680       -0.9550978683       -1.3376367479
 H          8.0020451438       -1.7282654222       -0.0771448536
 H          8.6674790412       -0.5517461052        1.9865725433
 H          7.3548864654        1.3741624566        2.7957856504
 H          5.3426215550        2.1148831589        1.5120693704
 H          2.9399154760       -0.3634801639       -2.0260825451
 H          3.5586224254       -0.0489196291        1.5353431631
 H          1.8575431197       -0.6423127685        3.2263173512
 H         -0.3393091328       -1.5146859047        2.5182880295
 H         -1.5981825280       -2.6453094579        0.8160550899
 C         -1.2215784597       -2.7585280332       -1.2633937259
 C         -2.5014109298       -3.0619618507       -1.9819217849
 C         -1.4870292901       -2.1553407587       -2.6087281229
 H         -0.9224609379       -2.5262981259       -3.4522132603
 H         -1.6984405790       -1.0987784590       -2.6600592552
 H         -2.6407411113       -4.0482016658       -2.3979887089
 H         -3.4056021685       -2.6197109541       -1.5895540900
 H         -0.4860075923       -3.5567286113       -1.2301329433
