  62
        -98.92961001
 C         -1.3977433351       -0.4249657585        0.5016377184
 C         -2.2475441206       -0.5803509400       -0.6184540130
 C         -3.4150978359        0.3216503277       -0.6775806272
 C         -3.5867853548        1.2415949604        0.2862520935
 C         -4.7301044781        2.2067887808        0.4364846603
 C         -5.8154076505        1.6226367731        1.3567734015
 C         -6.8546621524        0.7492532948        0.6545466980
 H         -7.4744457498        0.2951337386        1.4311365055
 H         -7.5037591216        1.3835271246        0.0471361060
 C         -6.2867035356       -0.3612174618       -0.2332960542
 H         -5.4505504680       -0.8463683121        0.2733107269
 H         -7.0658986834       -1.1143827108       -0.3653988797
 C         -5.8415103835        0.1392346064       -1.6155123851
 H         -6.2327305052        1.1444589140       -1.7720625748
 H         -6.2881616817       -0.4901608662       -2.3879152873
 C         -4.3246170343        0.1319137510       -1.8608425558
 H         -4.0284065973       -0.8333031981       -2.2832692371
 H         -4.0802900416        0.8893657274       -2.6131224927
 H         -5.3148517920        1.0448746196        2.1381407607
 H         -6.3402293394        2.4458964874        1.8458125939
 H         -4.3208170309        3.1041345690        0.9056974972
 H         -5.1384403399        2.4743599296       -0.5336069794
 O         -2.7227130973        1.3798228239        1.3308034575
 C         -1.6207968264        0.5580896500        1.4665101999
 O         -0.9236635624        0.7924998931        2.4761206073
 H          1.2390073782        0.7904157068        0.0733644810
 C          1.3820096854        0.0191821068       -0.6698615545
 C          0.7011311075       -1.1887230146       -0.5396222864
 C          0.8551473226       -2.1293226763       -1.5500975897
 C          1.6786013494       -1.8698887344       -2.6331960395
 C          2.3837883130       -0.6855695596       -2.7318859114
 C          2.2249829109        0.2734177323       -1.7386139142
 N          2.9241694354        1.4907212649       -1.7824240886
 S          3.5358488655        2.1039852413       -0.3501994008
 O          2.5055428918        2.8024547022        0.3767214383
 O          4.6702759874        2.9062321642       -0.7580456154
 C          4.0922867592        0.6707487120        0.5563546356
 C          5.1261466784       -0.0690425587        0.0155788395
 C          5.5398542425       -1.2198980568        0.6654945835
 C          4.9121656365       -1.6128688067        1.8378732131
 C          3.8826592320       -0.8547940890        2.3730511722
 C          3.4662435422        0.2996784182        1.7285482981
 H          2.6631851237        0.9092150674        2.1139408282
 H          3.3927695834       -1.1585279341        3.2844581861
 H          5.2267823918       -2.5141056717        2.3397937670
 H          6.3441268667       -1.8085795975        0.2548248446
 H          5.5945147960        0.2714084867       -0.8935282403
 H          3.5889183212        1.5691321648       -2.5381840603
 H          3.0349752764       -0.4955873792       -3.5710833710
 H          1.7766815618       -2.6119851185       -3.4108567055
 H          0.3135950289       -3.0567658197       -1.5278053086
 C         -0.1623835662       -1.2971947823        0.6934163327
 H          0.4008908054       -0.7980673604        1.4985086952
 C         -0.5546889615       -2.6497967215        1.2699721709
 C         -1.1834141849       -3.7774608469        0.5117183500
 C          0.2070985051       -3.9225942425        1.0559229322
 H          0.3497398691       -4.5720316311        1.9068866566
 H          1.0403335524       -3.9080312907        0.3726096773
 H         -1.3448993798       -3.6522802793       -0.5460784806
 H         -1.9805177620       -4.3200727927        1.0005447487
 H         -0.9470796183       -2.4975163921        2.2736555679
 O         -2.0611258321       -1.4282990608       -1.5266700941
