  62
        -98.94417024
 C         -2.2488046246       -0.8641695723        0.4086989358
 C         -2.4517067528       -0.0113180451       -0.7035357314
 C         -3.3002831944        1.1617120422       -0.4568009758
 C         -3.7881228926        1.3889820677        0.7762307120
 C         -4.6476431392        2.5534375588        1.1880875216
 C         -6.1423565878        2.3592897062        0.8979931027
 C         -6.5357095417        2.4456045862       -0.5772578809
 H         -7.6249072749        2.5111036871       -0.6143516810
 H         -6.1396330145        3.3675075343       -1.0041440676
 C         -6.0841966905        1.2476628688       -1.4244013689
 H         -5.8266672916        0.4134779393       -0.7676629287
 H         -6.9121869246        0.9147110278       -2.0542110569
 C         -4.8996994780        1.5343643627       -2.3473340255
 H         -4.6408194487        0.6101032546       -2.8698815879
 H         -5.1893446212        2.2748914801       -3.0960493305
 C         -3.6432530724        2.0369239942       -1.6242568120
 H         -2.8049410635        1.9978222709       -2.3240995710
 H         -3.7822506995        3.0682020374       -1.3005616566
 H         -6.4540041777        1.3935813498        1.3027060900
 H         -6.6826505761        3.1372990498        1.4422680463
 H         -4.5186077109        2.6689940873        2.2665384309
 H         -4.2953144772        3.4610711347        0.6970665206
 O         -3.5266245633        0.5697832940        1.8310130068
 C         -2.7690976066       -0.5799522570        1.6701356156
 O         -2.6210669508       -1.2484313116        2.7149386113
 O         -1.9505433757       -0.2138243970       -1.8388816909
 C         -1.4139745181       -2.1213415482        0.2516313984
 C         -0.0130169222       -1.7721893214       -0.1916979414
 C          0.6750718241       -2.4806013158       -1.1678363170
 C          1.9666481357       -2.1225564545       -1.5144568515
 C          2.5992398560       -1.0584535480       -0.8992533936
 C          1.9258936949       -0.3513748914        0.0885645652
 C          0.6350802129       -0.7163422040        0.4376656484
 H          0.1135408452       -0.1660994597        1.2125448329
 N          2.5577262235        0.7382382695        0.7156979698
 S          4.0758430471        0.4820270473        1.3887238868
 O          4.2398153998       -0.8885591160        1.8155702560
 O          4.2114156037        1.4948540206        2.4130093160
 C          5.2018082511        0.8473657529        0.0590599108
 C          6.1383755517       -0.0908215104       -0.3284999062
 C          7.0109510958        0.2206454566       -1.3597701684
 C          6.9324276269        1.4579819488       -1.9803648433
 C          5.9873435345        2.3898972198       -1.5774176135
 C          5.1127715718        2.0854193584       -0.5466313358
 H          4.3660970159        2.7811929437       -0.2016886389
 H          5.9288282964        3.3508406326       -2.0627312813
 H          7.6117369191        1.6979789824       -2.7830053682
 H          7.7462604264       -0.5022287350       -1.6746966676
 H          6.1577471603       -1.0416997656        0.1796389108
 H          1.9629790227        1.2261919314        1.3699000419
 H          3.6015392211       -0.7719010126       -1.1725172101
 H          2.4864971830       -2.6784872125       -2.2796184597
 H          0.1988894261       -3.3121563248       -1.6606074596
 H         -1.3463681851       -2.5698117549        1.2544380213
 C         -2.1144044382       -3.0964839978       -0.6723573672
 C         -1.9437700850       -4.5733441755       -0.4867426954
 C         -3.2433516646       -3.9183788983       -0.1297336834
 H         -4.1027832401       -4.0952387932       -0.7588473400
 H         -3.4864466696       -3.7957574492        0.9161869857
 H         -1.9142957115       -5.2036738113       -1.3627107311
 H         -1.3073930527       -4.9064825646        0.3193070774
 H         -2.2144647554       -2.7126730654       -1.6810123395
