  62
        -98.92580829
 C         -2.1064950063       -0.8503534866        0.8651745465
 C         -2.4051884052       -0.3488238076       -0.4241880466
 C         -2.7919413613        1.0738975863       -0.5010571176
 C         -2.7925741687        1.8255651730        0.6143940236
 C         -3.0815633819        3.2970630469        0.8271668987
 C         -3.7814382614        4.1206320044       -0.2509479024
 C         -5.2344631167        3.7281236905       -0.5156988901
 H         -5.8320515240        3.9986507194        0.3583667821
 H         -5.5965141129        4.3160021457       -1.3618728891
 C         -5.4761442147        2.2477481976       -0.7995094283
 H         -5.2158272196        1.6581114112        0.0817940739
 H         -6.5468506232        2.1117515271       -0.9736553443
 C         -4.7337436286        1.6840457255       -2.0096643587
 H         -5.1208132445        0.6784738516       -2.1937235261
 H         -4.9496979419        2.2923154493       -2.8899661895
 C         -3.2065686264        1.5687734201       -1.8566272423
 H         -2.7101875113        2.5083888097       -2.0885083196
 H         -2.8473978934        0.8261249890       -2.5752407811
 H         -3.7776152347        5.1563753338        0.0996657063
 H         -3.2063345350        4.0990355117       -1.1720279435
 H         -3.6604379406        3.3551640639        1.7545315232
 H         -2.1103748345        3.7586577505        1.0396928804
 O         -2.4384086882        1.3083491775        1.8286596646
 C         -2.0840847078       -0.0177501411        1.9824611972
 O         -1.7712825942       -0.3319258153        3.1510422455
 O         -2.3495089994       -1.0393768315       -1.4719019146
 C         -1.6702576956       -2.2981079765        1.0734883026
 C         -0.4242125076       -2.4909324681        0.2425619321
 C         -0.2893323606       -3.1950566802       -0.9460668366
 C          0.9079603584       -3.1793676126       -1.6450698185
 C          1.9944838711       -2.4559227722       -1.1925942182
 C          1.8718181764       -1.7439300356       -0.0079523225
 C          0.6834560941       -1.7773261396        0.6976356588
 H          0.5929949175       -1.2001632912        1.6114388447
 N          2.9641963098       -0.9553486771        0.4448619039
 S          3.0719128343        0.5347000308       -0.3545369782
 O          2.2214502410        1.5068335507        0.3045193723
 O          2.8400205491        0.3230068534       -1.7598066497
 C          4.7853033323        0.9407970064       -0.0772166599
 C          5.1288877489        1.8262167326        0.9252265518
 C          6.4700003310        2.0968234069        1.1496725904
 C          7.4383652036        1.4768545072        0.3749624182
 C          7.0772420265        0.5888467796       -0.6276445682
 C          5.7386522484        0.3154662071       -0.8574176449
 H          5.4095152805       -0.3601496140       -1.6292696093
 H          7.8329722367        0.1097814711       -1.2289595885
 H          8.4809047600        1.6885190534        0.5527583915
 H          6.7529156523        2.7882400112        1.9271305245
 H          4.3420309305        2.2900890029        1.4984404998
 H          2.8732401879       -0.7466984428        1.4319224178
 H          2.9163429092       -2.4129279245       -1.7481426099
 H          0.9838891189       -3.7302131542       -2.5704174215
 H         -1.1191961961       -3.7343198610       -1.3649641139
 H         -1.3478866378       -2.3408145727        2.1265902677
 C         -2.8564522548       -3.2443440578        0.9836029872
 C         -3.5201180287       -3.7128096153       -0.2739993028
 C         -2.7641718242       -4.6856736930        0.5812922414
 H         -3.3328803802       -5.4048701319        1.1520089908
 H         -1.8135664099       -5.0578833293        0.2355426366
 H         -4.5997595682       -3.7664677268       -0.2719491594
 H         -3.1150889329       -3.3844011310       -1.2165149521
 H         -3.5353765354       -3.0283588620        1.8064040037
