  62
        -98.93948562
 C         -1.0271051489       -1.3606081784        0.5268284903
 C         -1.9621706335       -1.1005772429       -0.5000558640
 C         -3.0379664307       -0.1404244192       -0.1852254460
 C         -3.0439771905        0.4668426866        1.0149173945
 C         -4.0240094586        1.4758434391        1.5580768616
 C         -4.4235347372        2.6178789907        0.6109756417
 C         -5.8705901391        2.5244138406        0.1240869237
 H         -6.2056235798        3.5226676927       -0.1661686926
 H         -6.4962030099        2.2000274135        0.9582630998
 C         -6.0962946148        1.5963746464       -1.0681938135
 H         -5.6748148947        2.0542712244       -1.9657628949
 H         -7.1747871480        1.5125207843       -1.2213826236
 C         -5.5103805453        0.1901412157       -0.9249367397
 H         -6.0592664994       -0.4691951765       -1.6006048548
 H         -5.6654928222       -0.1879120760        0.0847293913
 C         -4.0226781907        0.1019775982       -1.2964868234
 H         -3.7182242388        1.0021616442       -1.8395591831
 H         -3.8651295750       -0.7308014682       -1.9894041759
 H         -3.7363384709        2.6545541101       -0.2337395956
 H         -4.3097956754        3.5572448389        1.1549490668
 H         -4.9173092690        0.9467713691        1.8993001613
 H         -3.5431439949        1.8857415124        2.4492586482
 O         -2.1017220757        0.2063279304        1.9660790883
 C         -1.0720531732       -0.6888048169        1.7462885706
 O         -0.2693293107       -0.7966769164        2.6968324745
 H          0.6780199246        0.2275717959       -0.2885514802
 C          1.2137078104       -0.4457731821       -0.9390967253
 C          1.0189729708       -1.8141216034       -0.8187488766
 C          1.6948862379       -2.6567160502       -1.6931888040
 C          2.5305955576       -2.1314035571       -2.6636566859
 C          2.7286323612       -0.7665968078       -2.7720715462
 C          2.0592472826        0.0840468912       -1.8998270709
 N          2.2205949296        1.4755159385       -1.9709502089
 S          2.1822018818        2.3965533498       -0.5770416404
 O          0.8343738729        2.5042757391       -0.0761798171
 O          2.8112722669        3.6421217780       -0.9628244229
 C          3.2344009206        1.5282913287        0.5723801667
 C          2.7048252513        0.8346594140        1.6405363292
 C          3.5625753922        0.1323786791        2.4735759967
 C          4.9262631756        0.1366702704        2.2285648374
 C          5.4450033555        0.8469464673        1.1558716269
 C          4.5931487510        1.5462616579        0.3179801966
 H          4.9575406909        2.1203709958       -0.5183543101
 H          6.5069194256        0.8546460521        0.9705340342
 H          5.5869541627       -0.4138218854        2.8794926023
 H          3.1465155098       -0.4160401222        3.3039061738
 H          1.6405194063        0.8394531471        1.8179965627
 H          2.9254689504        1.7945452426       -2.6187306687
 H          3.3829848302       -0.3606810161       -3.5279447812
 H          3.0424397737       -2.7962651333       -3.3425587653
 H          1.5612205846       -3.7235220999       -1.6191502868
 C          0.1231682983       -2.3196312496        0.2881819316
 H          0.7142612200       -2.3175064732        1.2170929832
 C         -0.3940219747       -3.7229799271        0.0442157289
 C          0.3896600548       -4.9127260905        0.5087988389
 C         -0.8751861595       -4.5274216946        1.2133145308
 H         -1.7496762728       -5.1479697958        1.0880178662
 H         -0.8002379728       -4.0724655225        2.1906673468
 H          1.3245779152       -4.7305258765        1.0168875932
 H          0.3821005248       -5.8041740452       -0.1001959316
 H         -0.9512392778       -3.8035454676       -0.8817110153
 O         -1.9085275156       -1.6448423828       -1.6347703353
