  62
        -98.93244857
 C         -2.2250271806       -1.0221972876        0.7680800841
 C         -2.0606497829       -0.2454445965       -0.4041470553
 C         -2.4954304028        1.1636664042       -0.3283305824
 C         -2.9903068033        1.6476890262        0.8249920567
 C         -3.4694350998        3.0329362243        1.2066596421
 C         -3.7336959445        4.0908027377        0.1386127423
 C         -4.9238340885        3.7956459530       -0.7736445288
 H         -5.8410958632        3.8810340480       -0.1857585071
 H         -4.9544621399        4.5608745793       -1.5521283272
 C         -4.9250297297        2.4180267609       -1.4313009269
 H         -4.9932725033        1.6447527791       -0.6634966746
 H         -5.8255821856        2.3418248730       -2.0464099845
 C         -3.7246094819        2.1210532792       -2.3280774758
 H         -3.9299209228        1.1857393145       -2.8557428588
 H         -3.6187214952        2.9093769645       -3.0757963863
 C         -2.3794753714        1.9537611714       -1.5997840032
 H         -1.7057024365        1.3880375906       -2.2509370390
 H         -1.9060880148        2.9145108322       -1.4093538997
 H         -2.8359394821        4.2642799287       -0.4477106815
 H         -3.9486476159        5.0216705160        0.6705006874
 H         -4.3808586026        2.8811173910        1.7938784081
 H         -2.7169111546        3.4233523921        1.9009820086
 O         -3.0871612800        0.8703631138        1.9446445542
 C         -2.6985359932       -0.4571682238        1.9522380342
 O         -2.8134632824       -1.0162618308        3.0617674116
 H          0.3544024339       -1.0813955913        1.5319098063
 C          0.5925926988       -1.7593679622        0.7190787736
 C         -0.4033764149       -2.5894836111        0.2186056430
 C         -0.0850524090       -3.4418357497       -0.8294403581
 C          1.1892036080       -3.4419398279       -1.3714653078
 C          2.1688629025       -2.5955122397       -0.8860665512
 C          1.8616116254       -1.7466247952        0.1674488813
 N          2.8539825089       -0.8527782102        0.6489829379
 S          3.0669314008        0.5234113600       -0.3169257114
 O          2.2238457743        1.5924522327        0.1818518830
 O          2.9123448347        0.1601316532       -1.7009297595
 C          4.7757496482        0.9057690672        0.0179889592
 C          5.7492044344        0.1989181446       -0.6608024816
 C          7.0818151732        0.4552989839       -0.3819546679
 C          7.4172075816        1.4080632489        0.5686331716
 C          6.4290451811        2.1103724670        1.2412690765
 C          5.0939925410        1.8572695684        0.9668125131
 H          4.2932853166        2.3853909545        1.4591430943
 H          6.6922735963        2.8526726315        1.9776077934
 H          8.4550944515        1.6061543725        0.7849468020
 H          7.8527663197       -0.0871938865       -0.9049877205
 H          5.4403174954       -0.5248715534       -1.3966593372
 H          2.6244255250       -0.5205055730        1.5774891372
 H          3.1537044732       -2.5655910516       -1.3219014268
 H          1.4167402748       -4.1020811253       -2.1947179024
 H         -0.8441311113       -4.0827694526       -1.2471936458
 C         -1.7758387571       -2.4731166874        0.8360029812
 H         -1.6796034612       -2.6878988520        1.9137250754
 C         -2.7808930682       -3.4722256048        0.2844472083
 C         -4.2488526917       -3.1688049468        0.2896219952
 C         -3.5051924102       -3.2505660178       -1.0078397127
 H         -3.6847077044       -4.1031711850       -1.6464302388
 H         -3.2983319334       -2.3387474468       -1.5448057585
 H         -4.9351685795       -3.9627501553        0.5431685689
 H         -4.5567474056       -2.1956898944        0.6444749614
 H         -2.5035735139       -4.4951633674        0.5195309210
 O         -1.5697716417       -0.6906659895       -1.4735184784
