  62
        -98.94336057
 C         -0.7581897166       -1.8265654349        0.0934173312
 C         -1.4966184032       -1.1204365353        1.0690182641
 C         -2.7382164850       -0.4680772311        0.6178103542
 C         -3.0938824884       -0.5531192073       -0.6776492622
 C         -4.3000172513       -0.0115365063       -1.4159766665
 C         -5.1929432899        1.0516310583       -0.7822796496
 C         -4.5286049548        2.4149661395       -0.5963198875
 H         -4.3369840235        2.8480672505       -1.5814638395
 H         -5.2330003501        3.0683190345       -0.0759444524
 C         -3.2056476594        2.4075150319        0.1661634249
 H         -2.4461436163        1.8769748391       -0.4142028654
 H         -2.8622184236        3.4433057380        0.2475748013
 C         -3.2744963871        1.8258770018        1.5773638823
 H         -2.3266228446        2.0543173458        2.0717863304
 H         -4.0687364698        2.3239314647        2.1372407542
 C         -3.4939756342        0.3044107158        1.6615211322
 H         -3.1132683147       -0.0383189331        2.6282866679
 H         -4.5523695683        0.0565334962        1.6219236231
 H         -5.5969570317        0.6944448347        0.1604215058
 H         -6.0403539981        1.1886713652       -1.4597143015
 H         -3.9137227283        0.3688624082       -2.3673918625
 H         -4.9172770302       -0.8837417920       -1.6596208620
 O         -2.3561636038       -1.2612332755       -1.5822055964
 C         -1.1756889248       -1.8976103479       -1.2346128116
 O         -0.6104576669       -2.4825508202       -2.1783699193
 H          0.6940703354       -0.0273554662       -0.6324844050
 C          1.6219027273       -0.5648983533       -0.7391625476
 C          1.7195336675       -1.8631409638       -0.2620645244
 C          2.9159937427       -2.5460251952       -0.4541189885
 C          3.9705606600       -1.9396115548       -1.1137025616
 C          3.8677227711       -0.6416760980       -1.5817948621
 C          2.6763005458        0.0495449706       -1.3957737521
 N          2.5154203433        1.3594881479       -1.8639549379
 S          1.4491381772        2.4126563776       -1.1320681639
 O          0.0872590084        2.0596626398       -1.4469009294
 O          1.8823443548        3.7179520258       -1.5848749958
 C          1.7602039182        2.2460539723        0.6158208098
 C          0.7896922151        1.7262751080        1.4457222791
 C          1.0768063282        1.5437723716        2.7886987630
 C          2.3253356395        1.8929555987        3.2784969359
 C          3.2865731224        2.4320730015        2.4360533341
 C          3.0064703668        2.6062577448        1.0908507685
 H          3.7278134119        3.0238079981        0.4075047892
 H          4.2543573809        2.7081350456        2.8225829766
 H          2.5484980994        1.7439477173        4.3231933672
 H          0.3263708300        1.1062257388        3.4282689379
 H         -0.1709714136        1.4578351543        1.0350598725
 H          3.3488111804        1.8124283601       -2.2059685765
 H          4.6914251270       -0.1718593601       -2.0965000345
 H          4.8903812036       -2.4843624230       -1.2624124534
 H          3.0178229423       -3.5564694191       -0.0930715221
 C          0.5555746464       -2.4693258082        0.4876882675
 H          0.6866464818       -2.2329433000        1.5554102106
 C          0.4844873408       -3.9763251285        0.3318798490
 C          1.1776984883       -4.8798242586        1.3066049776
 C         -0.3159797794       -4.7670783583        1.3220580638
 H         -0.9049067159       -5.5979588183        0.9637607393
 H         -0.7797688818       -4.2201600249        2.1300497492
 H          1.6164571729       -5.7947127289        0.9376208418
 H          1.7235828784       -4.4204015651        2.1168256103
 H          0.4365108743       -4.2821069152       -0.7072426737
 O         -1.1368426896       -1.0362780146        2.2747241122
