  62
        -98.94969859
 C         -0.7838703838       -1.7875166336       -0.1439815188
 C         -1.9598943416       -1.6705266209        0.6318949549
 C         -2.9672381114       -0.7239644643        0.1354536432
 C         -2.7251714854       -0.0413750058       -0.9985639896
 C         -3.6711230688        0.9458142728       -1.6203567787
 C         -3.4226160641        2.3801323365       -1.1336040100
 C         -3.2840154624        2.5102402844        0.3834902063
 H         -3.1373506583        3.5701262892        0.6066683940
 H         -2.3803664836        1.9942544273        0.7207273862
 C         -4.4898060949        1.9861993852        1.1757194318
 H         -5.3620467527        1.9207780072        0.5236111661
 H         -4.7255692246        2.7041992799        1.9641265563
 C         -4.2636883756        0.6360806733        1.8584911671
 H         -5.0714867957        0.4798721939        2.5788231240
 H         -3.3255820033        0.6663903108        2.4199331030
 C         -4.2347038869       -0.5846738348        0.9298432987
 H         -5.1064399323       -0.5667861037        0.2719805574
 H         -4.2947306126       -1.4802433381        1.5555527219
 H         -4.2503924171        3.0054664767       -1.4742273356
 H         -2.5066653278        2.7559885737       -1.5947688425
 H         -4.6917485017        0.6486767983       -1.3853855287
 H         -3.5353763466        0.9115982627       -2.7028110368
 O         -1.5753617034       -0.1677823844       -1.7088171540
 C         -0.5669159833       -1.0259690897       -1.2917766362
 O          0.4442109288       -1.0257552092       -2.0172928325
 O         -2.1639369889       -2.3378363097        1.6836078603
 C          0.2968622346       -2.7550755226        0.2960377100
 C          1.6010182948       -2.0404183526        0.5513871382
 C          2.8383739217       -2.6147433485        0.2839111414
 C          4.0065812155       -1.9305251283        0.5700431564
 C          3.9691642532       -0.6612871156        1.1177503538
 C          2.7371342167       -0.0797464020        1.3921864286
 C          1.5696962010       -0.7730115173        1.1173557344
 H          0.6210588993       -0.3097411541        1.3456450640
 N          2.6494826016        1.2066785474        1.9537941320
 S          1.5427609947        2.2832583372        1.3182257347
 O          2.0129507271        3.5802033202        1.7620451869
 O          0.2049721824        1.9348283356        1.7274145501
 C          1.6965013209        2.1738396027       -0.4546254438
 C          2.9519140653        2.1536279866       -1.0291666270
 C          3.0538955646        2.0906239130       -2.4087056364
 C          1.9075834079        2.0569134513       -3.1873482034
 C          0.6556609436        2.0895079504       -2.5965601996
 C          0.5494603028        2.1477098566       -1.2171117381
 H         -0.4035977091        2.1564967140       -0.7131460296
 H         -0.2375994771        2.0499612611       -3.1991925023
 H          1.9889637073        1.9994265022       -4.2612946742
 H          4.0266080446        2.0625873185       -2.8730168543
 H          3.8293212556        2.1868913942       -0.4041943349
 H          3.5381181398        1.6558703169        2.1224422241
 H          4.8807623769       -0.1263893255        1.3365421360
 H          4.9598653635       -2.3892529359        0.3567149826
 H          2.8869998368       -3.6005818709       -0.1485780849
 H         -0.0542508398       -3.1686042545        1.2544144018
 C          0.4236340253       -3.8878447418       -0.7036005566
 C          0.7703702477       -5.2728762406       -0.2474399948
 C         -0.6204046015       -4.9627835788       -0.7102516754
 H         -0.9515809573       -5.3556315807       -1.6597644247
 H         -1.4042670770       -4.8939654826        0.0301837352
 H          1.3943090258       -5.8838966753       -0.8822837252
 H          0.9266640126       -5.4284298110        0.8094404722
 H          0.8022106176       -3.5521117052       -1.6624748090
