  62
        -98.93902800
 C         -2.2534498599       -0.0745325572        0.2815370596
 C         -3.2880893944       -0.7585588381       -0.4030210221
 C         -4.4525735869        0.0550129106       -0.7873053804
 C         -4.4656723787        1.3710880359       -0.5128235947
 C         -5.6069741526        2.3006158152       -0.8049028190
 C         -6.5739776340        2.3832070442        0.3846640756
 C         -6.9952510463        1.0203947658        0.9345049969
 H         -6.1227638882        0.5263344274        1.3682718383
 H         -7.6990702734        1.2024917943        1.7495851647
 C         -7.6416769714        0.0899743822       -0.1012787899
 H         -8.5270890890       -0.3681399359        0.3445077669
 H         -7.9756903727        0.6699349927       -0.9623086993
 C         -6.7416704830       -1.0515405265       -0.5778437420
 H         -6.3302011198       -1.5788726744        0.2864446482
 H         -7.3600003319       -1.7630201616       -1.1315603975
 C         -5.5792892793       -0.6466170913       -1.4930063300
 H         -5.9545717070       -0.0383240139       -2.3181713999
 H         -5.1485572253       -1.5622319294       -1.9081598971
 H         -6.0868580783        2.9404941869        1.1882378004
 H         -7.4585632513        2.9410414482        0.0720916502
 H         -5.1992794737        3.2938600371       -1.0001392751
 H         -6.1338301015        1.9536098421       -1.6915914350
 O         -3.4414836660        2.0017663430        0.1171330179
 C         -2.3277182048        1.2985885637        0.5385235578
 O         -1.4795488099        1.9989048872        1.1290679166
 O         -3.2672565022       -1.9846065624       -0.6907063892
 C         -0.9889066581       -0.7545958932        0.7813190876
 C          0.0288994184       -0.9317077050       -0.3205736639
 C         -0.2210855790       -1.7430266013       -1.4227267492
 C          0.7448231900       -1.9141015043       -2.3970371932
 C          1.9804130694       -1.3015975692       -2.2829184281
 C          2.2362577120       -0.4823417521       -1.1898241498
 C          1.2577883672       -0.2959852668       -0.2233740069
 H          1.4672176667        0.3530580551        0.6149751472
 N          3.4719363240        0.1702794966       -1.0526457492
 S          4.1036859026        0.3526596745        0.5028662991
 O          3.8852312931       -0.8537618680        1.2686696289
 O          3.5930366944        1.5733452510        1.0748438602
 C          5.8376192887        0.5402679718        0.1307848070
 C          6.3173822165        1.7919572252       -0.2057027874
 C          7.6586312527        1.9309657558       -0.5257611444
 C          8.4925481244        0.8227624939       -0.5054712281
 C          7.9970396990       -0.4266907280       -0.1638545182
 C          6.6565272630       -0.5730640774        0.1564554314
 H          6.2291106260       -1.5221987814        0.4374264852
 H          8.6484945892       -1.2854668008       -0.1451174253
 H          9.5359915558        0.9343560301       -0.7544326332
 H          8.0479087594        2.9013272481       -0.7885147064
 H          5.6333240939        2.6246917068       -0.1984855359
 H          4.1678044807       -0.1604083532       -1.7071250272
 H          2.7385337787       -1.4494408351       -3.0370948034
 H          0.5384114063       -2.5442474145       -3.2490383036
 H         -1.1798799294       -2.2304254668       -1.5079428557
 H         -0.5532685491       -0.0641282471        1.5173470500
 C         -1.2461957327       -2.0822883423        1.4700391636
 C         -0.1663818525       -2.6611294610        2.3321684114
 C         -1.4164456919       -2.1192579810        2.9570977612
 H         -2.1263826547       -2.8158159910        3.3774433052
 H         -1.3540408902       -1.1821715846        3.4919464320
 H         -0.0186208380       -3.7301944259        2.3234834833
 H          0.7478884238       -2.0941870962        2.4374651458
 H         -1.8425689902       -2.7654046164        0.8801464276
