  62
        -98.95135337
 C         -2.3373627666       -0.0974519496        0.1125145842
 C         -1.6100842029        0.4710368252       -0.9596855394
 C         -1.4589901600        1.9305698489       -0.9283950550
 C         -1.9205838821        2.6241872523        0.1279449001
 C         -1.8484400747        4.1160019736        0.3102404916
 C         -0.4987550774        4.6115558731        0.8468785376
 C          0.6412688049        4.6223489081       -0.1718549607
 H          0.3129986040        5.1336351945       -1.0779706262
 H          1.4508033035        5.2125493500        0.2624457653
 C          1.1866240895        3.2328411476       -0.5299359343
 H          2.2797190926        3.2634801645       -0.5353877889
 H          0.9001582355        2.5128058651        0.2406715986
 C          0.7457061600        2.7090604446       -1.8959436011
 H          1.1785795199        1.7158039698       -2.0288903922
 H          1.1425535462        3.3581953071       -2.6803256614
 C         -0.7729642742        2.6008048838       -2.0823764865
 H         -0.9624098950        1.9944299885       -2.9719315167
 H         -1.1995438007        3.5919794422       -2.2395134058
 H         -0.2130719914        3.9927352612        1.7013468864
 H         -0.6455885563        5.6325411737        1.2077139410
 H         -2.0712672436        4.6141781626       -0.6341123869
 H         -2.6245994586        4.3771254013        1.0330541545
 O         -2.5485851773        2.0307951932        1.1778754491
 C         -2.7764016425        0.6655039073        1.1934706054
 O         -3.3779970773        0.2544677395        2.2086293056
 O         -1.1231960670       -0.2034723725       -1.9052459223
 C         -2.5898422194       -1.5951037966        0.1538438067
 C         -1.2723766824       -2.3307503985        0.1996557746
 C         -0.9807173257       -3.4477419184       -0.5731645211
 C          0.2618954092       -4.0527317192       -0.4879268341
 C          1.2436083396       -3.5452270435        0.3439258994
 C          0.9579893685       -2.4321648775        1.1261739682
 C         -0.3007660905       -1.8569501148        1.0717382583
 H         -0.5124248252       -0.9966516476        1.6899520546
 N          1.9290062723       -1.8475683492        1.9665488224
 S          2.3628232282       -0.2642163874        1.6203723672
 O          3.4370800721        0.0399808811        2.5411399419
 O          1.2058131049        0.5898328917        1.6871051711
 C          3.0145843339       -0.3482750148       -0.0383975927
 C          4.3855315716       -0.3190717760       -0.2110957258
 C          4.9071542899       -0.4637146106       -1.4860922909
 C          4.0530765633       -0.6496917695       -2.5630809260
 C          2.6808933980       -0.6831693225       -2.3726113077
 C          2.1505878101       -0.5301407959       -1.0999569420
 H          1.0841112698       -0.5444739469       -0.9383151549
 H          2.0056477910       -0.8255006132       -3.2014526333
 H          4.4571488807       -0.7685277530       -3.5559724392
 H          5.9745248193       -0.4353037394       -1.6351375086
 H          5.0090491022       -0.1766149242        0.6567713890
 H          2.7668615659       -2.4044453186        2.0687557122
 H          2.2215205651       -4.0003912359        0.3881097031
 H          0.4751933526       -4.9201133905       -1.0935940328
 H         -1.7242638444       -3.8410958466       -1.2466954764
 H         -3.1174814043       -1.7858521199        1.1003323509
 C         -3.4791217930       -2.0152404275       -0.9977284581
 C         -4.3877568545       -3.1984043760       -0.8566427659
 C         -4.9587880488       -1.8132645127       -0.8786028329
 H         -5.5080165481       -1.4927463500       -1.7510543628
 H         -5.3282050083       -1.3948984818        0.0467726783
 H         -4.5502223234       -3.8302694923       -1.7167490370
 H         -4.3795251430       -3.7261488589        0.0851624934
 H         -3.0253162301       -1.8275953856       -1.9638041199
