  62
        -98.94342601
 C          1.9017127727        1.0454811331        0.5109974674
 C          2.8316650531        1.0337514479       -0.5576661811
 C          4.1547241591        0.4761578959       -0.2435013465
 C          4.4150631524        0.0056817250        0.9889191012
 C          5.7214237089       -0.5720889033        1.4615359235
 C          5.9083049801       -2.0571375407        1.1217342429
 C          6.1778727658       -2.3589251493       -0.3530045622
 H          7.0030179120       -1.7388390144       -0.7047710223
 H          6.5042012935       -3.3991957366       -0.4123141353
 C          4.9616774802       -2.1706320635       -1.2707440632
 H          4.8763849548       -3.0276793051       -1.9426874090
 H          4.0500430616       -2.1466025369       -0.6687505879
 C          5.0128727051       -0.9153882674       -2.1416718652
 H          5.8447114352       -0.9917867724       -2.8454190338
 H          4.0862490764       -0.8616906533       -2.7186286330
 C          5.1577221722        0.3933013105       -1.3544560419
 H          4.9679331999        1.2254254507       -2.0366838243
 H          6.1698573323        0.4863030448       -0.9615175347
 H          6.7572056712       -2.4203143991        1.7057373618
 H          5.0215552379       -2.6050815989        1.4491509970
 H          5.7338554903       -0.4640022022        2.5483141264
 H          6.5486000042        0.0041277096        1.0459546416
 O          3.4890532710        0.0196379117        1.9847194626
 C          2.2157940142        0.5139556374        1.7650288134
 O          1.4600747365        0.4351540269        2.7559273724
 O          2.5954920882        1.4680557221       -1.7140784976
 C          0.4837975759        1.5735353968        0.3542343135
 C         -0.3495567776        0.5335376717       -0.3542967646
 C         -0.3913983301        0.4259509261       -1.7394605768
 C         -1.1629890668       -0.5522256758       -2.3419153776
 C         -1.9138910521       -1.4316695142       -1.5817876573
 C         -1.8741425030       -1.3335846616       -0.1975115490
 C         -1.0955810936       -0.3570992977        0.4059576666
 H         -1.0540086903       -0.2912222103        1.4856292568
 N         -2.6747658896       -2.2002216509        0.5796033188
 S         -4.3249415383       -2.0246437685        0.3171582836
 O         -4.9676140426       -2.5004709924        1.5213831852
 O         -4.6837372523       -2.7002290441       -0.9036179188
 C         -4.5413275986       -0.2637990244        0.1309832920
 C         -4.6398048376        0.2836099253       -1.1321205270
 C         -4.6936807530        1.6620676732       -1.2613701462
 C         -4.6453501294        2.4646820625       -0.1323355538
 C         -4.5537392152        1.8991025390        1.1304427631
 C         -4.4949545722        0.5216617772        1.2656355698
 H         -4.4244015155        0.0455633116        2.2308804912
 H         -4.5191888426        2.5258587465        2.0074210190
 H         -4.6792427706        3.5379077564       -0.2356315421
 H         -4.7651433029        2.1053686482       -2.2412537826
 H         -4.6744504962       -0.3753148782       -1.9837471220
 H         -2.4796663672       -2.1313750252        1.5688204366
 H         -2.5345313166       -2.1879140960       -2.0350947655
 H         -1.1829047202       -0.6291856507       -3.4183457335
 H          0.2038020341        1.0961266301       -2.3381152106
 H          0.0919783844        1.6697551843        1.3756426672
 C          0.4120595321        2.9302820696       -0.3158944296
 C         -0.8873639749        3.6757977231       -0.2766988758
 C          0.2785484830        4.1575703321        0.5320110036
 H          0.7887790597        5.0562325632        0.2192180563
 H          0.2478728791        4.0257681013        1.6039942655
 H         -1.1798771077        4.2448885694       -1.1452430876
 H         -1.7112105451        3.2092629704        0.2429813775
 H          1.0155102868        3.0079993410       -1.2098230499
