  62
        -98.94031804
 C          2.6297647705        1.1490521800        0.2784066385
 C          2.5569693102        0.3149704796       -0.8651385112
 C          3.4184418099       -0.8760410006       -0.8395946309
 C          4.2137944499       -1.1116666604        0.2185736992
 C          5.1666606397       -2.2658485905        0.3732323695
 C          4.5115710794       -3.5493540302        0.9017451501
 C          3.6041747891       -4.2741545603       -0.0932753196
 H          4.1448417690       -4.4332964608       -1.0266745796
 H          3.3868942789       -5.2571672301        0.3292630608
 C          2.2778221293       -3.5559274401       -0.3802705797
 H          2.0904873995       -2.8128415298        0.3988464600
 H          1.4571000391       -4.2755368999       -0.3376666694
 C          2.2098310193       -2.8704417906       -1.7452399000
 H          1.2466804594       -2.3595556804       -1.8250527701
 H          2.2596895191       -3.6230527509       -2.5350652497
 C          3.3155718896       -1.8345900210       -1.9872361005
 H          4.2697247994       -2.3332508613       -2.1557492104
 H          3.0560956996       -1.2595471913       -2.8793032607
 H          3.9435677295       -3.3059899097        1.8029588200
 H          5.3155685793       -4.2301931803        1.1906253103
 H          5.9268757198       -1.9475870805        1.0899665493
 H          5.6524538295       -2.4700393510       -0.5812485404
 O          4.2508234402       -0.2884604700        1.3011436189
 C          3.4377651905        0.8320805103        1.3725643685
 O          3.5214404007        1.4546335206        2.4511445283
 O          1.8198584701        0.5382074694       -1.8581137512
 C          1.7615822008        2.3881829103        0.4125552781
 C          0.3490979607        2.0754584905       -0.0212260717
 C         -0.3461589892        2.8031218203       -0.9769861919
 C         -1.6436505693        2.4570726905       -1.3130221717
 C         -2.2730156695        1.3838307808       -0.7112820212
 C         -1.5898120296        0.6520373810        0.2515569690
 C         -0.2960702795        1.0095813509        0.5957684488
 H          0.2363154004        0.4387724410        1.3486658189
 N         -2.2151036699       -0.4532761586        0.8563265995
 S         -3.7434179197       -0.2368684080        1.5171758595
 O         -3.9383179194        1.1238690523        1.9620401290
 O         -3.8670139399       -1.2663300875        2.5264139899
 C         -4.8499922700       -0.6053839982        0.1722122298
 C         -4.7494034103       -1.8427571785       -0.4328292798
 C         -5.6049108105       -2.1468899986       -1.4795988496
 C         -6.5424130103       -1.2148950586       -1.8994562998
 C         -6.6334981899        0.0215113017       -1.2787667603
 C         -5.7803596598        0.3322451219       -0.2312272505
 H         -5.8107104195        1.2823659021        0.2779400492
 H         -7.3632553998        0.7442691817       -1.6064986605
 H         -7.2058911304       -1.4539175787       -2.7154801297
 H         -5.5371656507       -3.1074093288       -1.9645061892
 H         -4.0094346004       -2.5390747985       -0.0748513296
 H         -1.6199161599       -0.9560564385        1.4982542096
 H         -3.2787703596        1.1053806910       -0.9799867710
 H         -2.1694301893        3.0276014903       -2.0633869418
 H          0.1332880109        3.6285382000       -1.4764112323
 H          1.7353823209        2.6005116007        1.4950919780
 C          2.3381290510        3.6282859199       -0.2549815825
 C          3.8128984310        3.7715222595       -0.4820533726
 C          2.8885123709        3.6020359092       -1.6481291025
 H          2.7096036711        4.4554311790       -2.2858174028
 H          2.8799918906        2.6573701290       -2.1677480321
 H          4.2636305213        4.7384580894       -0.3153352531
 H          4.4468759809        2.9420664394       -0.2033346324
 H          1.8131675213        4.5297028601        0.0463545072
