  62
        -98.94738850
 C          2.5646901691        0.1334087895       -0.3984459785
 C          2.1687997620        0.7037660937        0.8355952521
 C          1.7275722480        2.1046991637        0.7814870764
 C          1.7068215163        2.7439150887       -0.4020065939
 C          1.2553545822        4.1609007105       -0.6080163566
 C         -0.2379501580        4.2356016030       -0.9512980560
 C         -1.1368398940        3.4535845820        0.0068762647
 H         -2.1703315456        3.6335818673       -0.2997957597
 H         -0.9564367979        2.3825063676       -0.1174319221
 C         -0.9692338141        3.8264392580        1.4865047494
 H         -1.9603370767        3.9112520474        1.9368061449
 H         -0.4871880227        4.8016772570        1.5723123085
 C         -0.1942383875        2.7961691685        2.3106821225
 H         -0.3520754222        3.0172386588        3.3701271297
 H         -0.5986860494        1.8002116228        2.1147338712
 C          1.3209182108        2.7545261878        2.0738595422
 H          1.7348249800        3.7634296218        2.1445622885
 H          1.7638362869        2.1433123721        2.8658652894
 H         -0.3840664182        3.8333546046       -1.9566707895
 H         -0.5363611917        5.2860831461       -0.9563490833
 H          1.4600947128        4.7338763081        0.2944597959
 H          1.8291126687        4.5838399559       -1.4349018069
 O          2.0825368398        2.1583718613       -1.5692674054
 C          2.5017087491        0.8391104724       -1.5982247438
 O          2.7998513006        0.4177545484       -2.7363746159
 H          0.4125284037       -1.0502493089       -0.9813957060
 C          0.5930476152       -1.9039296676       -0.3435153764
 C          1.8922302065       -2.2100001914        0.0387991737
 C          2.1006386016       -3.3234801005        0.8428283940
 C          1.0277886654       -4.0860089618        1.2720346075
 C         -0.2679405129       -3.7488307946        0.9263467749
 C         -0.4849797603       -2.6455775050        0.1087766256
 N         -1.7839693839       -2.2657506690       -0.2818838063
 S         -2.0910120938       -0.6004616921       -0.3007621599
 O         -1.6437716839       -0.0562443255       -1.5595479943
 O         -1.5615073706        0.0090516060        0.8958146266
 C         -3.8736166153       -0.5963815248       -0.2574852542
 C         -4.5289143204       -0.2563948380        0.9103302351
 C         -5.9148433670       -0.2848434401        0.9334999111
 C         -6.6167714042       -0.6536792578       -0.2039835044
 C         -5.9445180475       -0.9908610315       -1.3697951339
 C         -4.5594949739       -0.9624597343       -1.4004351690
 H         -3.9934394057       -1.2064053993       -2.2843648591
 H         -6.4935210334       -1.2743245457       -2.2531787450
 H         -7.6948386829       -0.6759919352       -0.1831095207
 H         -6.4397073442       -0.0192602051        1.8369235652
 H         -3.9394585105        0.0284486015        1.7670846519
 H         -2.4997143911       -2.7557439062        0.2391811521
 H         -1.1040191120       -4.3305372436        1.2840295672
 H          1.2028013184       -4.9457929394        1.9009413414
 H          3.1018122203       -3.5876224810        1.1420764290
 C          3.0060296828       -1.3180774899       -0.4558998920
 H          3.1735733197       -1.5418547461       -1.5206395780
 C          4.3083723056       -1.5080474146        0.2942613699
 C          5.2932129432       -2.5472442337       -0.1480894693
 C          5.5874194894       -1.0945967705       -0.3675139602
 H          6.3501031128       -0.6230114403        0.2335973026
 H          5.5180747355       -0.7017942629       -1.3718363324
 H          5.8600735464       -3.0738363512        0.6048132025
 H          5.0361577406       -3.1455231416       -1.0091880699
 H          4.2068946120       -1.3120182716        1.3554442758
 O          2.2005870499        0.0803690011        1.9293687029
