  62
        -98.94796186
 C         -1.2523982176       -0.7875301285        0.3857581355
 C         -2.0873648581       -0.5883462944       -0.7393801340
 C         -3.0463397897        0.5208646141       -0.6345508354
 C         -3.0327742328        1.3048550096        0.4587804667
 C         -3.9832671528        2.4380105365        0.7136388411
 C         -5.2254428494        1.9608240793        1.4793677704
 C         -5.8793787283        0.7158443794        0.8798381477
 H         -5.1943680876       -0.1290173695        0.9801710094
 H         -6.7609960965        0.4894711124        1.4832606109
 C         -6.2904081385        0.8615268787       -0.5919422348
 H         -7.2953112375        0.4528875200       -0.7170565358
 H         -6.3341582974        1.9173561662       -0.8615022202
 C         -5.3836988740        0.1244049912       -1.5793212425
 H         -5.2624281817       -0.9137321859       -1.2602722306
 H         -5.8804286366        0.1121998011       -2.5530732259
 C         -3.9894089981        0.7299953319       -1.7858525251
 H         -4.0793679073        1.7923767979       -2.0227199876
 H         -3.5299538718        0.2262350752       -2.6416180527
 H         -4.9316644856        1.7331802795        2.5066862322
 H         -5.9486671674        2.7779253817        1.5060232994
 H         -3.4650131294        3.1927606168        1.3080445125
 H         -4.2756272793        2.8799658460       -0.2370638153
 O         -2.1695502045        1.1232558410        1.4906758146
 C         -1.2594200633        0.0795948089        1.4777922332
 O         -0.5177013102        0.0298322933        2.4812688196
 O         -2.0376740271       -1.2985453919       -1.7777549633
 C         -0.2367863254       -1.9147436946        0.3869256839
 C          0.7890176429       -1.6971425225       -0.7001535055
 C          1.3156949920       -2.7214985479       -1.4767484207
 C          2.2804924971       -2.4479722408       -2.4312853590
 C          2.7610290036       -1.1635817131       -2.6125557053
 C          2.2444816190       -0.1332737573       -1.8352667471
 C          1.2615824334       -0.4075054488       -0.8989404818
 H          0.8464158622        0.4061562377       -0.3245401912
 N          2.7037193142        1.1861709190       -1.9685993084
 S          2.8415700181        2.1395364832       -0.6002468236
 O          1.5442291643        2.6015913739       -0.1733607831
 O          3.7810266808        3.1727529212       -0.9833149084
 C          3.5888971920        1.0734357332        0.6202476336
 C          4.9103897658        0.7213850540        0.4179512267
 C          5.5218099380       -0.1436795133        1.3093014762
 C          4.8025320047       -0.6469951328        2.3831477352
 C          3.4802720570       -0.2804380970        2.5752828994
 C          2.8626584484        0.5885034671        1.6881762876
 H          1.8320417262        0.8793709205        1.8226116077
 H          2.9119585117       -0.6653728340        3.4072487900
 H          5.2743285475       -1.3257610960        3.0759834483
 H          6.5522491872       -0.4249953889        1.1640973034
 H          5.4382187931        1.1435926754       -0.4217032258
 H          3.4890058109        1.3049489967       -2.5914651140
 H          3.5191729790       -0.9554788644       -3.3516083399
 H          2.6728435031       -3.2504754378       -3.0370464272
 H          0.9657362875       -3.7315206992       -1.3406112517
 H          0.2892767059       -1.8454407225        1.3514240645
 C         -0.9294255206       -3.2591745450        0.3056783854
 C         -0.3243242836       -4.4615862971        0.9639380601
 C         -1.5500873670       -3.8263047225        1.5460034523
 H         -2.4935071490       -4.3443720721        1.4608820319
 H         -1.4485232391       -3.2536570266        2.4568328535
 H         -0.4286777598       -5.4211443677        0.4803721153
 H          0.6101597478       -4.3284670957        1.4876543301
 H         -1.4617048630       -3.3964365210       -0.6282306959
