  62
        -98.94459359
 C         -1.7001794608       -0.7971674808        0.1852797907
 C         -2.9394248308       -1.1439686107        0.7759258708
 C         -4.1325056408       -0.8717676709       -0.0326263193
 C         -3.9985638508       -0.3352271213       -1.2592496494
 C         -5.1195794308       -0.0133379516       -2.2101891495
 C         -5.7849922808        1.3459285685       -1.9538186700
 C         -6.6721157808        1.4129961588       -0.7099180700
 H         -7.2413834909        2.3425416688       -0.7729733403
 H         -7.3881841808        0.5909037488       -0.7310483798
 C         -5.9030833509        1.3948090892        0.6185225400
 H         -6.2998606009        2.1686177294        1.2796980498
 H         -4.8539803909        1.6388727492        0.4346804300
 C         -5.9785477608        0.0689181994        1.3757290604
 H         -5.3707057509        0.1552853897        2.2799824504
 H         -7.0100506208       -0.1204787605        1.6807609605
 C         -5.4739727008       -1.1417051408        0.5796303408
 H         -5.3614986808       -1.9822370306        1.2687265710
 H         -6.1960452108       -1.4136236710       -0.1897736792
 H         -5.0056924208        2.1089464985       -1.8878760802
 H         -6.4014620408        1.5760961582       -2.8259159500
 H         -5.8721054407       -0.8013855016       -2.1705487993
 H         -4.6828501907        0.0012557181       -3.2110970295
 O         -2.7876428308       -0.0329487214       -1.7994320895
 C         -1.6119193908       -0.2366556312       -1.0887446394
 O         -0.5805146608        0.1058354087       -1.6975181795
 O         -3.0422946708       -1.6547331003        1.9232211710
 C         -0.4263333908       -1.0230316005        0.9796334908
 C          0.2430244292        0.2999447996        1.2595855905
 C         -0.4921180109        1.3003554297        1.8923055302
 C          0.0800955291        2.5234126698        2.1798219498
 C          1.3974105391        2.7784426598        1.8377750098
 C          2.1412236891        1.7887290896        1.2093626801
 C          1.5647699292        0.5555851095        0.9325055404
 H          2.1588894792       -0.2000349706        0.4492659306
 N          3.4923284291        1.9979062996        0.8859718600
 S          4.0464091992        1.5952527791       -0.6467740499
 O          5.2921394491        2.3245531791       -0.7708918100
 O          3.0556791692        1.8606744288       -1.6623536499
 C          4.4153410292       -0.1432488708       -0.5582049893
 C          3.8438938892       -1.0085478811       -1.4700215291
 C          4.1686007193       -2.3548317411       -1.4076494487
 C          5.0528002193       -2.8081120108       -0.4399309186
 C          5.6167259192       -1.9250361905        0.4688380112
 C          5.2996702692       -0.5775388705        0.4097043308
 H          5.7212030392        0.1419671697        1.0913362806
 H          6.3009058292       -2.2834130003        1.2208599913
 H          5.3006866393       -3.8570498808       -0.3939089882
 H          3.7267206693       -3.0426493113       -2.1112429585
 H          3.1477703693       -0.6141084014       -2.1943683092
 H          3.8478964391        2.9032364496        1.1598293098
 H          1.8450846991        3.7363633798        2.0561965195
 H         -0.5030682709        3.2886156500        2.6700698096
 H         -1.5220633609        1.1020188498        2.1565080302
 H         -0.7595525808       -1.4414694903        1.9413113309
 C          0.4729812092       -2.0310048607        0.2975707811
 C          1.4423969293       -2.8348704104        1.1102560414
 C          0.2295860393       -3.4917512406        0.5247151216
 H          0.3573240693       -4.1695018209       -0.3056870882
 H         -0.5789322307       -3.7626374205        1.1879342816
 H          2.4078367793       -3.0617453205        0.6842692815
 H          1.4588883392       -2.6623285301        2.1755992413
 H          0.7685966693       -1.7222363710       -0.6989642189
