  62
        -98.94512751
 C         -2.0789223808       -1.4341908662        0.0143217236
 C         -1.9165651921       -0.4800882880       -1.0192248353
 C         -2.7762856356        0.7106149402       -0.9347710999
 C         -3.6522859887        0.8291206033        0.0786293057
 C         -4.5472092509        2.0114268992        0.3082745711
 C         -3.8743222696        3.0529216456        1.2130643639
 C         -2.4509907143        3.4168029797        0.7896534368
 H         -2.0992561624        4.1847109591        1.4817166211
 H         -1.8051376001        2.5449855816        0.9169035264
 C         -2.3274309240        3.9310043224       -0.6512649825
 H         -1.6778294469        4.8084400436       -0.6564239418
 H         -3.3044089598        4.2512697486       -1.0151779641
 C         -1.7257717417        2.9251297497       -1.6344242367
 H         -1.4803044026        3.4571933600       -2.5573603590
 H         -0.7941894498        2.5250831011       -1.2262588538
 C         -2.6279695928        1.7448567582       -2.0151377795
 H         -3.6054919867        2.1128339458       -2.3333462168
 H         -2.1635615463        1.2304366303       -2.8614728808
 H         -3.8373172277        2.6549552914        2.2297364001
 H         -4.4943964208        3.9512506014        1.2228490676
 H         -4.8031262459        2.4584228596       -0.6504301272
 H         -5.4616777838        1.6612573633        0.7901499579
 O         -3.7898998649       -0.1119785625        1.0465207282
 C         -3.0083323405       -1.2525813499        1.0443525141
 O         -3.2341682419       -2.0269658966        1.9955757054
 H          0.7926499366       -1.6654970016       -1.3563888081
 C          1.0795688251       -1.8804648399       -0.3387644267
 C          0.1441482674       -2.4186032656        0.5332462834
 C          0.5197757435       -2.6475587629        1.8525846739
 C          1.8038109033       -2.3594596912        2.2801269484
 C          2.7374930194       -1.8331169330        1.4049087456
 C          2.3654406876       -1.5795985206        0.0905427834
 N          3.2956499936       -1.0449768686       -0.8193896055
 S          4.2085552687        0.2942788862       -0.4159244573
 O          4.8438402902        0.7003764938       -1.6480950329
 O          5.0887369589       -0.0433819831        0.6747315520
 C          3.0536744518        1.5481751445        0.1083673899
 C          2.6033730319        2.4626707743       -0.8229763676
 C          1.7006718716        3.4358901031       -0.4266754008
 C          1.2536909429        3.4681704854        0.8854007185
 C          1.7064489650        2.5362131537        1.8060438470
 C          2.6189718160        1.5676922530        1.4186989004
 H          3.0042072719        0.8391246820        2.1125563529
 H          1.3543843082        2.5615467903        2.8249984253
 H          0.5487940050        4.2243888409        1.1918944700
 H          1.3487806536        4.1639606980       -1.1398184333
 H          2.9798248295        2.4055639509       -1.8316442143
 H          2.9198943648       -0.9374475147       -1.7507467719
 H          3.7439291990       -1.6111244578        1.7213335422
 H          2.0837386836       -2.5516567433        3.3049799664
 H         -0.2086907087       -3.0469580135        2.5439062530
 C         -1.2655794190       -2.7188906539        0.0825179395
 H         -1.7420005309       -3.3261693254        0.8632864803
 C         -1.3023296576       -3.4998192643       -1.2164568458
 C         -0.9238489766       -4.9491102655       -1.2017152429
 C         -2.3535943255       -4.5494154889       -1.4072585648
 H         -2.7888497478       -4.6705255578       -2.3879781926
 H         -3.0510843495       -4.7120944061       -0.5982402988
 H         -0.6511474825       -5.3838478933       -0.2518487363
 H         -0.3749411311       -5.3479398639       -2.0409917978
 H         -1.0280363585       -2.9156641045       -2.0846747841
 O         -1.1073159278       -0.5962444637       -1.9781987559
