  62
        -98.94892945
 C          2.2341581778        0.8506306611        0.0785481581
 C          1.5860711005        0.1159188386       -0.9430986727
 C          1.9841382015       -1.2915896920       -1.0750708487
 C          2.8869324673       -1.8028361436       -0.2190605661
 C          3.3901517006       -3.2169797333       -0.2423033169
 C          2.5622793358       -4.1374113193        0.6633961364
 C          1.0528043731       -4.0322612434        0.4451642897
 H          0.5781305108       -4.7690241777        1.0980929985
 H          0.7021650106       -3.0506749932        0.7729414668
 C          0.5984301004       -4.2655028621       -1.0023398879
 H          1.3782137177       -4.7864246850       -1.5603266440
 H         -0.2811782399       -4.9126806340       -0.9886946781
 C          0.1994566188       -2.9875527392       -1.7429714815
 H         -0.4688210709       -2.4034167920       -1.1051052290
 H         -0.3586881331       -3.2702684041       -2.6398195911
 C          1.3588737766       -2.0858638598       -2.1869349153
 H          2.1126927912       -2.6832141906       -2.7052257130
 H          0.9586549781       -1.3503199307       -2.8909330349
 H          2.8847240604       -5.1667013018        0.4920577366
 H          2.7747635135       -3.8840710760        1.7048414674
 H          3.3654309914       -3.5839629482       -1.2667956754
 H          4.4242062847       -3.2152216433        0.1081730824
 O          3.4426169860       -1.0819362408        0.7899614396
 C          3.1202085915        0.2527535094        0.9717746726
 O          3.6822233395        0.7915252735        1.9495319872
 H          0.3654738267        0.9515505063        1.9081343561
 C         -0.2185094236        1.6541687509        1.3251204182
 C          0.4273845396        2.4913706705        0.4233430509
 C         -0.3388651373        3.3894815877       -0.3080156868
 C         -1.7168996829        3.4120256015       -0.1740921047
 C         -2.3593342241        2.5283399340        0.6742825102
 C         -1.5974292688        1.6493054300        1.4312266349
 N         -2.2672945755        0.6746573501        2.2320109447
 S         -2.2761825626       -0.8088195797        1.4159690998
 O         -3.0199355743       -1.7186936979        2.2623787996
 O         -0.9328647775       -1.2358527393        1.0886948808
 C         -3.2057912213       -0.4246644226       -0.0474103098
 C         -4.5832712252       -0.5093759309        0.0188831955
 C         -5.3301874764       -0.1645653536       -1.0953936804
 C         -4.6886366258        0.2625718275       -2.2487407709
 C         -3.3057120324        0.3439675385       -2.2964143651
 C         -2.5498519623       -0.0002845110       -1.1859619497
 H         -1.4719789128        0.0644749272       -1.1986087485
 H         -2.8013760599        0.6796735187       -3.1881852655
 H         -5.2692671376        0.5346693148       -3.1161386085
 H         -6.4059673986       -0.2266104997       -1.0608976944
 H         -5.0327838529       -0.8488522936        0.9375776055
 H         -1.8115049625        0.5272410030        3.1237711118
 H         -3.4337143281        2.5040921072        0.7562994117
 H         -2.2984917414        4.1083214746       -0.7579701712
 H          0.1432032037        4.0591138316       -1.0012852768
 C          1.9178997419        2.3261498251        0.2648699600
 H          2.4081402411        2.6292181258        1.2015944095
 C          2.4995637197        3.1312227653       -0.8784779461
 C          2.8875017061        4.5639675063       -0.6724889128
 C          3.9466109723        3.5156953991       -0.8301017665
 H          4.5179064925        3.4896645180       -1.7457739692
 H          4.5090233888        3.2158099568        0.0424577203
 H          2.7361263105        5.2613659552       -1.4823347232
 H          2.7368758190        4.9865645423        0.3093302079
 H          2.0916352142        2.8414752084       -1.8400093681
 O          0.7331408523        0.6173186886       -1.7211856321
