  62
        -98.94622136
 C          2.8294049399        0.8833372960        0.2053146135
 C          2.4733224157        0.1576343844       -0.9589519575
 C          2.8403431069       -1.2637407050       -0.9534410029
 C          3.5597893440       -1.7661882914        0.0664538599
 C          3.9790097040       -3.2015615113        0.2300090425
 C          2.9096883966       -4.0711094002        0.9071768976
 C          1.6838480783       -4.3852569482        0.0471918014
 H          2.0081877945       -4.8071923266       -0.9045225275
 H          1.1128466254       -5.1559475626        0.5686989630
 C          0.7629561876       -3.1839446930       -0.2147196933
 H          0.9874175472       -2.3873561076        0.5005599804
 H         -0.2809373630       -3.4653072896       -0.0493521956
 C          0.8556678935       -2.6141471968       -1.6307157838
 H          0.1628809939       -1.7701216757       -1.7019278074
 H          0.5270319468       -3.3701467421       -2.3475258257
 C          2.2600181001       -2.1330320581       -2.0266241982
 H          2.9074560618       -2.9864972124       -2.2262392514
 H          2.1735118029       -1.5338325235       -2.9359017329
 H          2.5900994781       -3.5765555481        1.8277505252
 H          3.3821988788       -5.0160182081        1.1844629324
 H          4.8705166582       -3.1994949453        0.8605937803
 H          4.2368685452       -3.6254482542       -0.7400311696
 O          3.9944318192       -1.0001884396        1.1031456135
 C          3.5782672409        0.3179582481        1.2348803271
 O          3.9363020437        0.8674284449        2.2968914845
 O          1.8584063600        0.6601255404       -1.9337912375
 C          2.2942878009        2.2908993017        0.3940631588
 C          0.7894573189        2.2617024357        0.2484501173
 C          0.0677120224        3.2386089600       -0.4243579949
 C         -1.3045551411        3.1226657102       -0.5691786748
 C         -1.9857746411        2.0348233327       -0.0550217976
 C         -1.2753176798        1.0573818489        0.6290482150
 C          0.0933912249        1.1893934422        0.7930061468
 H          0.6396493959        0.4201811827        1.3275764203
 N         -1.9538482479       -0.0654299419        1.1442382986
 S         -2.8012992044       -0.9998057818        0.0265029475
 O         -2.8163938325       -2.3360692986        0.5813208085
 O         -2.2648771816       -0.8576307698       -1.3055205884
 C         -4.4463105523       -0.3223476225        0.0978673089
 C         -5.1071767611       -0.3429069118        1.3105170063
 C         -6.3861509085        0.1850592375        1.3844357498
 C         -6.9798193161        0.7199129997        0.2505998596
 C         -6.3042663992        0.7302702643       -0.9601008501
 C         -5.0240088387        0.2043198780       -1.0404498650
 H         -4.4573672580        0.1946590604       -1.9580415536
 H         -6.7673001898        1.1459236605       -1.8405926032
 H         -7.9751701821        1.1309131195        0.3107855537
 H         -6.9148130601        0.1786688712        2.3239558013
 H         -4.6107505127       -0.7716496524        2.1650137529
 H         -1.3578403723       -0.6659835551        1.6967715058
 H         -3.0505746557        1.9290024283       -0.1851437575
 H         -1.8498460124        3.8865074929       -1.1022060227
 H          0.5827256088        4.0837034380       -0.8511349017
 H          2.5419700174        2.5814855302        1.4257986127
 C          2.9695107515        3.2535428576       -0.5604273295
 C          3.1728698826        4.6872385561       -0.1745692949
 C          4.3425894208        3.7524782756       -0.2281119651
 H          5.0587047204        3.8628700061       -1.0284195197
 H          4.7770145792        3.4176577768        0.7028236938
 H          3.0896472377        5.4436598625       -0.9403441493
 H          2.8203487824        4.9995538444        0.7968169459
 H          2.7561903992        3.0236770247       -1.5980836490
