  62
        -98.94048700
 C         -1.8040649999       -0.8545396150       -0.3574415130
 C         -3.1363756722       -1.3344955851       -0.4331340886
 C         -4.1215434891       -0.6550682295        0.4185575489
 C         -3.7103367223        0.3241439217        1.2442409318
 C         -4.6115260561        1.1390811270        2.1247886520
 C         -5.0966673939        2.4037592783        1.4022076824
 C         -5.6547281626        2.1408153595        0.0034250435
 H         -5.9941588892        3.0985795466       -0.3968127425
 H         -4.8468829382        1.7911633358       -0.6435401685
 C         -6.8098569793        1.1307133380       -0.0396925766
 H         -7.2385965326        1.0154041205        0.9564889423
 H         -7.5961871682        1.5250290191       -0.6868317945
 C         -6.4294189581       -0.2454354610       -0.5894554832
 H         -5.9178650512       -0.1284060364       -1.5483720251
 H         -7.3507940421       -0.8030777338       -0.7774072645
 C         -5.5506992633       -1.1093804157        0.3239941928
 H         -5.5173263753       -2.1164822130       -0.1023043250
 H         -6.0019520091       -1.1722665640        1.3164716601
 H         -4.2555047357        3.0947911960        1.3110509119
 H         -5.8621054076        2.8803238892        2.0172917558
 H         -5.4623244767        0.5315218303        2.4272817705
 H         -4.0512007003        1.4313066349        3.0145966343
 O         -2.4154286785        0.7151950230        1.3365915824
 C         -1.4279479804        0.1449452089        0.5411857734
 O         -0.2924881331        0.6101302364        0.7416679435
 O         -3.4827757240       -2.2913919312       -1.1763516496
 C         -0.7672399032       -1.5211726977       -1.2434560661
 C          0.4693980079       -1.8559798395       -0.4472555880
 C          0.3267615803       -2.5959525937        0.7243998035
 C          1.4209778425       -2.9056551379        1.5075848278
 C          2.6907118331       -2.5020502802        1.1311851797
 C          2.8470179135       -1.7775018024       -0.0409827516
 C          1.7428900984       -1.4596747084       -0.8241027552
 H          1.8861900461       -0.8766413100       -1.7205212112
 N          4.1442501976       -1.3841629469       -0.4345793765
 S          4.9536484595       -0.2479012262        0.4918349386
 O          6.3034164522       -0.2112209130       -0.0250340707
 O          4.8104418679       -0.5902262259        1.8831255183
 C          4.1499433486        1.3060709321        0.1380997606
 C          4.8239666912        2.2584227553       -0.6022777571
 C          4.1813005562        3.4455782140       -0.9129850085
 C          2.8765009636        3.6550648389       -0.4910886708
 C          2.2134648394        2.6870667826        0.2466838136
 C          2.8531395543        1.5006011481        0.5687727302
 H          2.3399125772        0.7383025310        1.1323360126
 H          1.1931698870        2.8235429658        0.5679324202
 H          2.3723370266        4.5760785295       -0.7391471137
 H          4.6955525275        4.2005917948       -1.4858229273
 H          5.8349034366        2.0498351957       -0.9134850736
 H          4.2031686072       -1.1142333614       -1.4069813223
 H          3.5539874186       -2.7205918189        1.7377872312
 H          1.2877329846       -3.4694362742        2.4188716864
 H         -0.6637447068       -2.9129953272        1.0228879256
 H         -1.2400045079       -2.4716371098       -1.5439493441
 C         -0.4714168825       -0.7599739209       -2.5282664101
 C         -1.4462468589        0.2319752216       -3.0867265416
 C         -0.1394566191        0.7019311551       -2.5255973905
 H          0.6126180225        1.0611348565       -3.2132142481
 H         -0.1380921821        1.2081243036       -1.5733437872
 H         -1.5909035181        0.2607192682       -4.1563666541
 H         -2.3457095711        0.4253509223       -2.5203793556
 H          0.0482311324       -1.3765383796       -3.2555829044
