  62
        -98.94593919
 C          2.1177743590        1.4875734015        0.0032641915
 C          1.8348650897        0.3694425714       -0.8179256286
 C          2.8952804703       -0.6465092980       -0.8958191087
 C          4.0516213602       -0.4474513474       -0.2375689786
 C          5.1919359907       -1.4221242967       -0.1921056886
 C          5.0651737612       -2.3675105070        1.0108363313
 C          3.6833043815       -3.0061051878        1.1521507311
 H          3.7224604418       -3.6757192778        2.0140544310
 H          2.9524255211       -2.2277251282        1.3834988411
 C          3.2158307020       -3.7884473379       -0.0829888690
 H          2.7888257326       -4.7377256082        0.2468300508
 H          4.0708661322       -4.0222696673       -0.7184129390
 C          2.1429921017       -3.0805626684       -0.9127939990
 H          1.7305082422       -3.8051727285       -1.6199232991
 H          1.3311089015       -2.7544754189       -0.2580318391
 C          2.6202411411       -1.8695819280       -1.7244377389
 H          3.4970019113       -2.1421678575       -2.3153223788
 H          1.8177142310       -1.5882545184       -2.4124760889
 H          5.8219698116       -3.1485587065        0.9170653512
 H          5.2747354508       -1.7997759369        1.9204822313
 H          6.1225912704       -0.8588810362       -0.1037092385
 H          5.2125905011       -1.9945711466       -1.1173504987
 O          4.2981432495        0.6575159827        0.5122844416
 C          3.3335892389        1.6384676321        0.6702153616
 O          3.6721110383        2.5803280322        1.4154554917
 O          0.7594264599        0.2241300909       -1.4538924187
 C          1.0744563184        2.5762907009        0.1880236316
 C         -0.1859818913        1.9568613301        0.7396473814
 C         -0.1217109910        1.2971457100        1.9648816513
 C         -1.2380197807        0.6825773893        2.4980214012
 C         -2.4428479206        0.7014888587        1.8160872011
 C         -2.5144073009        1.3486149888        0.5905338911
 C         -1.3944653212        1.9816125595        0.0644782813
 H         -1.4706933815        2.4791902596       -0.8892027586
 N         -3.7252499909        1.3542490982       -0.1197853789
 S         -4.6296719001       -0.0514562723       -0.1581405492
 O         -5.3790272000        0.0191251374       -1.3936334692
 O         -5.4213316401       -0.1483275629        1.0441567008
 C         -3.4611985693       -1.3998717117       -0.2138549492
 C         -2.4640143492       -1.3787956910       -1.1681719892
 C         -1.5602333486       -2.4269324205       -1.2158246592
 C         -1.6695023481       -3.4757462106       -0.3159998694
 C         -2.6793847382       -3.4851697813        0.6336682306
 C         -3.5841606488       -2.4373614318        0.6883556106
 H         -4.3798159489       -2.4004013424        1.4149500806
 H         -2.7616832078       -4.3020829614        1.3325448405
 H         -0.9613827377       -4.2886589002       -0.3554425094
 H         -0.7668523186       -2.4048565199       -1.9449688592
 H         -2.3855834797       -0.5524922409       -1.8555694891
 H         -3.6653503710        1.7776956983       -1.0340614189
 H         -3.3244387804        0.2283606181        2.2172132910
 H         -1.1720234105        0.1794315592        3.4507898811
 H          0.8232204890        1.2707539305        2.4910761514
 H          1.4798006480        3.2618515510        0.9453820617
 C          0.8766641281        3.3418431609       -1.1031972984
 C          0.3246638873        4.7346217906       -1.0710937682
 C          1.7695211974        4.5077850515       -1.3980056682
 H          2.0994462374        4.6605116918       -2.4147282481
 H          2.5117215172        4.7650849818       -0.6563922081
 H         -0.3361691328        5.0489762003       -1.8649795283
 H          0.0830453470        5.1534374903       -0.1059130382
 H          0.6070503185        2.7019917809       -1.9355403485
