  62
        -98.94056181
 C          2.3402446862       -0.1980128779       -0.2696562723
 C          3.5157112298       -0.5873644476       -0.9550101496
 C          4.7245510239        0.1886455952       -0.6492478718
 C          4.6453420294        1.2117929749        0.2213944741
 C          5.8075362657        2.0523664151        0.6632051291
 C          6.4662009399        1.4706792447        1.9219691543
 C          6.7716362451       -0.0240189689        1.8246239087
 H          7.2606696467       -0.3173374001        2.7561036624
 H          5.8311152506       -0.5769911976        1.7681267816
 C          7.6606149023       -0.4140118220        0.6354718995
 H          8.1755573841        0.4679028667        0.2529480651
 H          8.4258252428       -1.1106868647        0.9841787104
 C          6.9192965628       -1.1045081119       -0.5107964845
 H          6.3262840936       -1.9337598918       -0.1168056335
 H          7.6632608947       -1.5282787713       -1.1905891936
 C          5.9967646114       -0.2067916181       -1.3450660050
 H          6.5453387211        0.6766179132       -1.6777714736
 H          5.6903399277       -0.7747957273       -2.2283761073
 H          5.7935616017        1.6279041125        2.7682862547
 H          7.3890372803        2.0208973411        2.1142033451
 H          5.4403189671        3.0553917381        0.8864588755
 H          6.5338328244        2.1128110029       -0.1449090822
 O          3.4923668518        1.5713575948        0.8418349414
 C          2.3134118637        0.8742767459        0.6218483323
 O          1.3367489301        1.3022509534        1.2654468682
 O          3.5501565268       -1.5343612408       -1.7866478330
 C          1.0564519629       -0.9671084235       -0.5206551163
 C         -0.0192727329       -0.0393095875       -1.0281436859
 C          0.2611802491        0.7772798199       -2.1216451475
 C         -0.6940679787        1.6385899766       -2.6236719156
 C         -1.9553087058        1.6949303474       -2.0563575452
 C         -2.2455779972        0.8853864412       -0.9653344199
 C         -1.2807182423        0.0241273358       -0.4597628014
 H         -1.5355449520       -0.5913173871        0.3863484180
 N         -3.5071904509        0.9394918708       -0.3513109449
 S         -4.1578015374       -0.4775902723        0.2936984907
 O         -3.6201502743       -0.6883121095        1.6140465387
 O         -3.9986449186       -1.5671476393       -0.6431771098
 C         -5.8757501869       -0.0124635966        0.4131034363
 C         -6.7544365286       -0.3952872191       -0.5827351193
 C         -8.0810669868       -0.0036852065       -0.4932192345
 C         -8.5035256951        0.7624046741        0.5827332145
 C         -7.6101563305        1.1381558847        1.5751407963
 C         -6.2826962586        0.7491105821        1.4924510704
 H         -5.5546488986        1.0091952126        2.2432041508
 H         -7.9428454003        1.7309667989        2.4118723809
 H         -9.5362735248        1.0659335655        0.6503937065
 H         -8.7787524804       -0.2972193565       -1.2608879804
 H         -6.3826749448       -0.9981394925       -1.3955818839
 H         -4.1886480630        1.4502403680       -0.8958594903
 H         -2.7035175392        2.3666263946       -2.4490110090
 H         -0.4592478006        2.2671688318       -3.4696306494
 H          1.2446678935        0.7274750207       -2.5695506162
 H          1.2945977664       -1.6821527868       -1.3229870947
 C          0.6534056613       -1.7436724002        0.7147824551
 C         -0.1888684982       -2.9765834411        0.5875520198
 C          1.2571997768       -3.0920357599        0.9630497088
 H          1.5072327196       -3.3667521391        1.9768225085
 H          1.9483240251       -3.4691390404        0.2233179333
 H         -0.9397513650       -3.1653865376        1.3406360788
 H         -0.4859069773       -3.2778187727       -0.4059495829
 H          0.4883513950       -1.1030375307        1.5748229823
