  62
        -98.93802951
 C          0.7096579621        1.4651360748        0.4772288892
 C          1.4057080165        0.4174069546        1.1286228630
 C          2.3388126715       -0.3642335177        0.3039367055
 C          2.4370019473       -0.0881558085       -1.0088975572
 C          3.3880054257       -0.7471743589       -1.9677566989
 C          4.8088788095       -0.1784146147       -1.7771519777
 C          5.8302105324       -1.1919431756       -1.2599829993
 H          6.1144481647       -1.8570540273       -2.0781192036
 H          6.7213126113       -0.6348020228       -0.9631903036
 C          5.3713821168       -2.0623252374       -0.0861540212
 H          6.2658659827       -2.5297310708        0.3308698990
 H          4.7405717697       -2.8722267984       -0.4558339946
 C          4.6261123183       -1.3327987141        1.0389767385
 H          4.9512298063       -1.7565022827        1.9912488383
 H          4.8924431873       -0.2757948931        1.0540607259
 C          3.0930681037       -1.4717701955        0.9876981106
 H          2.8303679938       -2.4304379377        0.5304729325
 H          2.7096866471       -1.4742230378        2.0125662234
 H          4.7490336809        0.6655487933       -1.0865714169
 H          5.1710338883        0.2190323135       -2.7265034017
 H          3.3803122996       -1.8239396458       -1.8113043655
 H          3.0241278469       -0.5419597359       -2.9750640806
 O          1.7224624649        0.8960024603       -1.6096245076
 C          0.8216815754        1.6772438878       -0.8987719168
 O          0.2172003330        2.5101678555       -1.5991487715
 H         -1.5234420170        0.0627746885        0.4929347950
 C         -2.1018702136        0.9331770318        0.2200991325
 C         -1.6348042812        2.1922158508        0.5775480220
 C         -2.3906415297        3.3031199122        0.2319158363
 C         -3.5672173337        3.1480239715       -0.4819869107
 C         -3.9981334641        1.8971154807       -0.8832883738
 C         -3.2498779437        0.7777409408       -0.5349252908
 N         -3.6391367692       -0.5149881114       -0.9185855463
 S         -2.4637488208       -1.6435431939       -1.3094922131
 O         -1.2994626397       -1.0423280195       -1.9170469391
 O         -3.1676920863       -2.6196173968       -2.1169234132
 C         -2.0425997929       -2.3935622982        0.2488347812
 C         -3.0639295013       -2.8741314068        1.0444978404
 C         -2.7444895772       -3.4698372411        2.2538160509
 C         -1.4176048717       -3.5762980293        2.6432466054
 C         -0.4034584132       -3.0941997729        1.8304771070
 C         -0.7170018557       -2.4980199202        0.6195661757
 H          0.0416852340       -2.0931061905       -0.0340211360
 H          0.6279065395       -3.1645924453        2.1362288775
 H         -1.1690916944       -4.0350627592        3.5871702741
 H         -3.5290424288       -3.8464305735        2.8901070291
 H         -4.0810859070       -2.7728157899        0.7050620541
 H         -4.4251269543       -0.5547658063       -1.5511945330
 H         -4.8972804902        1.7846687213       -1.4698836730
 H         -4.1450730566        4.0190212359       -0.7521608617
 H         -2.0470855797        4.2906241322        0.4928401970
 C         -0.3092112030        2.2431224732        1.2942263663
 H         -0.4067544949        1.6582254439        2.2248502310
 C          0.1195833471        3.6411877840        1.7088278338
 C          1.5703683435        4.0039860358        1.8103221240
 C          0.7157332552        4.6240849774        0.7479193884
 H          0.4485557095        5.6657711366        0.8518572506
 H          0.8476711572        4.3060427841       -0.2738904256
 H          1.8913660424        4.6164385294        2.6395491283
 H          2.2925584636        3.2580422035        1.5107841817
 H         -0.5289696548        4.0500207495        2.4776753254
 O          1.2453722248        0.1391514476        2.3476855357
