  62
        -98.94530024
 C         -2.1279234906       -0.9096531650        0.0743254329
 C         -2.8537468549       -0.2459426466        1.0911193418
 C         -3.5534515573        0.9806058329        0.6865143234
 C         -3.4280696719        1.4212413486       -0.5788872528
 C         -4.1168564048        2.6325874795       -1.1362735002
 C         -5.4724622573        2.2657224305       -1.7563056136
 C         -6.3521640282        1.4040101463       -0.8505093865
 H         -7.2929654450        1.2336045902       -1.3781422064
 H         -5.8774539508        0.4293853714       -0.7162392237
 C         -6.6416017923        2.0202222768        0.5253324588
 H         -6.4373861099        3.0912654136        0.5019461570
 H         -7.7036354595        1.8973881757        0.7474441010
 C         -5.8686993159        1.3825003202        1.6812410148
 H         -5.9947281800        0.2973529460        1.6512582632
 H         -6.3049952794        1.7371979696        2.6187429363
 C         -4.3670156104        1.6917006630        1.7313863003
 H         -4.2107948136        2.7710321345        1.6736446283
 H         -3.9874115380        1.3410508619        2.6957653885
 H         -5.9978203636        3.1891201858       -2.0067571071
 H         -5.2909284516        1.7156227797       -2.6824840151
 H         -4.2543416062        3.3638467912       -0.3419006797
 H         -3.4776540621        3.0650474641       -1.9081424710
 O         -2.6849372905        0.7807407760       -1.5174769688
 C         -2.0237439439       -0.4030001440       -1.2215854539
 O         -1.3925750987       -0.8917850847       -2.1768545252
 H          0.0884009502       -0.1762112740        1.3037741334
 C          0.6929922784       -0.8657532677        0.7262015390
 C          0.0926427855       -1.9946217636        0.1809307962
 C          0.8790111317       -2.8693461751       -0.5560476273
 C          2.2234430917       -2.6043883039       -0.7546085433
 C          2.8129093343       -1.4742170657       -0.2195227345
 C          2.0372709969       -0.5968447475        0.5274189790
 N          2.6301295890        0.5522496277        1.0861703798
 S          3.4310671531        1.5903048950        0.0326990836
 O          3.3928699364        2.8847662411        0.6792941959
 O          2.8836473635        1.5223845517       -1.3026529735
 C          5.1066531884        0.9881876238        0.0425836419
 C          5.7620334877        0.9070541108        1.2557993380
 C          7.0684718889        0.4458760731        1.2802403262
 C          7.6944700654        0.0787853137        0.0981071961
 C          7.0236523206        0.1690627866       -1.1119292454
 C          5.7160473946        0.6287660113       -1.1434495210
 H          5.1516772248        0.7105425877       -2.0588604068
 H          7.5116030374       -0.1165464278       -2.0299666157
 H          8.7113400813       -0.2800526578        0.1197656942
 H          7.5934049320        0.3741538313        2.2191173248
 H          5.2399010069        1.2057593571        2.1493483902
 H          1.9980284477        1.0800037742        1.6717577545
 H          3.8574072619       -1.2614164049       -0.3786604294
 H          2.8204988017       -3.2884349412       -1.3380646741
 H          0.4375089942       -3.7524014210       -0.9874572548
 C         -1.3853341522       -2.1896760259        0.4150426505
 H         -1.5443603182       -2.3415934286        1.4931617134
 C         -1.9741925471       -3.3651310819       -0.3351769866
 C         -1.8799624736       -4.7473741748        0.2364410052
 C         -3.1973780491       -4.0340966544        0.2140741943
 H         -3.9563683802       -4.3686866529       -0.4771237343
 H         -3.5925624927       -3.6563692553        1.1459174977
 H         -1.3822627406       -4.8612462530        1.1874263221
 H         -1.7363276808       -5.5762903064       -0.4398894723
 H         -1.9089929277       -3.2465693721       -1.4109540334
 O         -2.9062902516       -0.6551753171        2.2831142619
