  62
        -98.93617965
 C          2.4189037794        0.4908283389        0.1897762160
 C          2.8532845199       -0.8476253657        0.0071850650
 C          4.2231537824       -1.0330169825       -0.4875843435
 C          4.9716149271        0.0508293957       -0.7607200968
 C          6.3998372065        0.0163878973       -1.2204952423
 C          7.3673754267        0.0644719413       -0.0296890795
 C          7.0364732946       -0.9391620820        1.0748320494
 H          7.8010125612       -0.8365788745        1.8479949710
 H          6.0812647278       -0.6666686172        1.5297074728
 C          6.9748501424       -2.3998460466        0.6068250067
 H          7.4812141056       -2.5029922084       -0.3534762332
 H          7.5130947390       -3.0210028726        1.3258434685
 C          5.5599772642       -2.9714251552        0.4964178806
 H          5.0157918790       -2.7865594984        1.4261919588
 H          5.6393256342       -4.0550305805        0.3746940221
 C          4.7142609394       -2.4417641795       -0.6687544026
 H          5.2727524582       -2.5376895587       -1.6021403989
 H          3.8173005979       -3.0641374868       -0.7387242547
 H          8.3783428028       -0.1179593929       -0.3984273306
 H          7.3376024657        1.0683451700        0.4000418465
 H          6.5664417828       -0.8883096383       -1.8018261531
 H          6.5770425064        0.8852057105       -1.8564925030
 O          4.5169049138        1.3173172784       -0.6002443775
 C          3.2388937853        1.5788089669       -0.1160185342
 O          2.9861516287        2.7925303047       -0.0203237448
 O          2.1246314951       -1.8466525679        0.2572455278
 C          1.0156944610        0.6786355303        0.7356880736
 C         -0.0109394259        0.8352825332       -0.3567726585
 C          0.2049679025        1.6636124428       -1.4534848222
 C         -0.7748270246        1.8183204801       -2.4174461577
 C         -1.9931830273        1.1738234198       -2.2957958318
 C         -2.2164980584        0.3397400758       -1.2068297450
 C         -1.2200324826        0.1631204748       -0.2568684750
 H         -1.4028500932       -0.5043251586        0.5727156583
 N         -3.4363365851       -0.3355608155       -1.0493972105
 S         -4.0370825659       -0.4927185570        0.5234233412
 O         -3.7911907349        0.7231351742        1.2640749707
 O         -3.5159701734       -1.7070085430        1.0992342957
 C         -5.7797478580       -0.6774517224        0.1958906385
 C         -6.5918161861        0.4406906958        0.2280618627
 C         -7.9403816703        0.2978173946       -0.0581386182
 C         -8.4502944868       -0.9528580689       -0.3731049274
 C         -7.6228337064       -2.0657562411       -0.4006074079
 C         -6.2735626515       -1.9304712176       -0.1144844773
 H         -5.5942480984       -2.7669853179       -0.1142710559
 H         -8.0236286585       -3.0367481800       -0.6428602078
 H         -9.5000620917       -1.0614563020       -0.5953889096
 H         -8.5868583627        1.1602096039       -0.0336913075
 H         -6.1530933694        1.3908074911        0.4876526274
 H         -4.1466862901       -0.0270811109       -1.6990730574
 H         -2.7625933434        1.3108704327       -3.0403029186
 H         -0.5935993463        2.4635687873       -3.2639331883
 H          1.1408563605        2.1954509780       -1.5342922699
 H          0.7878114304       -0.2659373071        1.2571133413
 C          0.9182802720        1.7935491366        1.7692745872
 C          0.2704247360        3.1153415681        1.5026529769
 C         -0.3969703365        2.1281513165        2.4097950606
 H         -0.4129774227        2.3298737506        3.4705880299
 H         -1.2839872707        1.6275463843        2.0475788460
 H          0.7304217431        3.9930140344        1.9300067096
 H         -0.1584941835        3.2827491228        0.5274054567
 H          1.7884849425        1.8118910007        2.4188298236
