  62
        -98.93759573
 C         -1.8678570136       -0.2354268356       -0.0653267754
 C         -2.9111861872       -1.0976960155        0.3481499590
 C         -4.2257654576       -0.4727404148        0.5549461756
 C         -4.3556783116        0.8535415308        0.3691510963
 C         -5.6426392618        1.6234349217        0.4599380946
 C         -6.4768816422        1.4037779741       -0.8184044981
 C         -7.7926571212        0.6581613338       -0.5934437744
 H         -8.5152238279        1.3416785241       -0.1425592758
 H         -8.1779419294        0.3722612690       -1.5745429970
 C         -7.7112161000       -0.5882964475        0.2929726886
 H         -7.6890090940       -0.2913570900        1.3425360517
 H         -8.6404349424       -1.1429830474        0.1463349504
 C         -6.5288863984       -1.5278997347        0.0231103652
 H         -6.8839529889       -2.5560452787        0.1184925196
 H         -6.1696250360       -1.4098197485       -0.9994301263
 C         -5.3482418324       -1.3694636666        0.9994649346
 H         -4.8822993033       -2.3484630513        1.1452297950
 H         -5.7207610102       -1.0348699426        1.9715434439
 H         -6.7043740842        2.3685316556       -1.2744275658
 H         -5.8639003243        0.8549106656       -1.5365594894
 H         -5.3837613878        2.6768419334        0.5683941560
 H         -6.1994188984        1.3085304026        1.3396285994
 O         -3.3237181193        1.6527353467       -0.0075995245
 C         -2.0571355901        1.1350057782       -0.2396686824
 O         -1.2135008932        1.9828678558       -0.5861053468
 O         -2.7485647541       -2.3329985617        0.5393741553
 C         -0.4907818931       -0.8255927269       -0.3176265969
 C          0.5100036093       -0.1804690162        0.6076199478
 C          0.3211537886       -0.3133207524        1.9820423560
 C          1.1843925298        0.2883146484        2.8755393422
 C          2.2618208287        1.0279557856        2.4182363138
 C          2.4614739820        1.1653616233        1.0505049068
 C          1.5917584745        0.5561457635        0.1540527859
 H          1.7608397778        0.6977411952       -0.8994630926
 N          3.5332692416        1.9304461743        0.5636153510
 S          4.4897030586        1.3804422127       -0.6902522050
 O          5.6429228389        2.2530066639       -0.6725950701
 O          3.7405557670        1.3359904580       -1.9191080736
 C          4.9699741678       -0.2631441175       -0.1916352567
 C          6.0559945817       -0.4006583848        0.6512583105
 C          6.4028972029       -1.6649723236        1.0982556111
 C          5.6550920474       -2.7644899653        0.7045159556
 C          4.5675114188       -2.6093875161       -0.1408495242
 C          4.2177886545       -1.3474496587       -0.5955517926
 H          3.3821379691       -1.1899871826       -1.2569304971
 H          3.9880899267       -3.4654232915       -0.4479303114
 H          5.9224619841       -3.7486412958        1.0556497785
 H          7.2511465519       -1.7891958802        1.7520107089
 H          6.6154560962        0.4793448143        0.9244874076
 H          4.1000881736        2.3574554938        1.2815259977
 H          2.9335089245        1.5071507979        3.1142349890
 H          1.0210649078        0.1810902719        3.9372577747
 H         -0.5240055001       -0.8872505410        2.3369234730
 H         -0.5780670967       -1.8873819739       -0.0447413841
 C         -0.1304605788       -0.7296402552       -1.7842200742
 C          0.8182062629       -1.7196101084       -2.3887850837
 C         -0.6406826146       -1.7756563512       -2.7277597090
 H         -0.9557266689       -1.4696360852       -3.7141334223
 H         -1.2329158847       -2.5758044339       -2.3082467918
 H          1.5099176854       -1.3749321474       -3.1434773594
 H          1.2102772069       -2.4906515518       -1.7425580891
 H         -0.1021650237        0.2918281572       -2.1474708682
