  62
        -98.93877852
 C         -1.8657558923       -0.7217775951        0.8511693909
 C         -2.1865414452        0.6606701487        0.8248294468
 C         -3.6050831327        0.9993621146        0.6745742942
 C         -4.5175914507        0.0145813204        0.5935558821
 C         -6.0062458254        0.1929694942        0.4654276431
 C         -6.4862780249        0.4223442615       -0.9742215660
 C         -6.1561044460        1.7963530880       -1.5586601822
 H         -6.7348561773        1.9003507632       -2.4786520111
 H         -6.4948437736        2.5726569413       -0.8718610410
 C         -4.6705061567        2.0059868538       -1.8839705382
 H         -4.5745508643        2.4516680040       -2.8766465497
 H         -4.1642985369        1.0383747564       -1.9185042724
 C         -3.9289874338        2.9163279030       -0.9049336579
 H         -2.8801852376        2.9632075768       -1.2088753491
 H         -4.3418512492        3.9261379586       -0.9590983522
 C         -3.9777659620        2.4461462084        0.5546758573
 H         -3.2484456189        3.0250323185        1.1263559106
 H         -4.9689895544        2.6195368470        0.9732536040
 H         -6.0622433362       -0.3566154027       -1.6121426436
 H         -7.5719896043        0.3006439325       -0.9787363096
 H         -6.3312691048        1.0218779137        1.0949464397
 H         -6.4625429538       -0.7267003301        0.8379981271
 O         -4.1760729951       -1.2986372252        0.6409556022
 C         -2.8487051158       -1.7069628309        0.7438064325
 O         -2.7104031763       -2.9430890710        0.7319545486
 O         -1.3215854771        1.5705994275        0.9344957497
 C         -0.3958170114       -1.0659156330        1.0001737789
 C          0.2863821312       -1.2318251709       -0.3334417082
 C         -0.2868493567       -1.9675103635       -1.3652721359
 C          0.3812389929       -2.1238610605       -2.5662977493
 C          1.6377283468       -1.5743373204       -2.7522678157
 C          2.2194366618       -0.8376673507       -1.7275020403
 C          1.5312673418       -0.6549766953       -0.5362566222
 H          1.9765251502       -0.0608826518        0.2464292647
 N          3.4889640969       -0.2649758678       -1.8776168560
 S          4.5511159665       -0.2554027601       -0.5816223229
 O          5.8612229040       -0.1545286548       -1.1872474038
 O          4.3334011423       -1.3881285959        0.2863556981
 C          4.1882904208        1.2637474421        0.2709000601
 C          4.2143646337        2.4394848387       -0.4527182382
 C          3.9428056180        3.6316723170        0.1983895870
 C          3.6534777089        3.6283224924        1.5546936101
 C          3.6353927259        2.4399395512        2.2679907978
 C          3.9061361200        1.2438519460        1.6221995218
 H          3.8957220164        0.2967770111        2.1392401756
 H          3.4077660829        2.4387405182        3.3219836834
 H          3.4389771987        4.5569067796        2.0597367615
 H          3.9545441357        4.5587043065       -0.3519145444
 H          4.4457759792        2.4016481987       -1.5041115618
 H          3.9529375676       -0.4754556292       -2.7490404387
 H          2.1643646593       -1.7135905692       -3.6842228992
 H         -0.0745633088       -2.6949732681       -3.3613146691
 H         -1.2529212968       -2.4247796109       -1.2123553074
 H          0.0485815082       -0.1794003547        1.4813011257
 C         -0.1386416944       -2.2496954702        1.9225728127
 C          0.2730163098       -3.6036825984        1.4380688658
 C          1.2596296870       -2.7397960182        2.1618717151
 H          1.5425937436       -3.0129883987        3.1675783973
 H          2.0620385496       -2.3035245080        1.5836542926
 H         -0.1417327101       -4.4636059811        1.9414220732
 H          0.4034137733       -3.7470191048        0.3769934784
 H         -0.7985771109       -2.2342044822        2.7847463645
