  62
        -98.94052034
 C          2.3157937327        0.7604779918        0.0825601106
 C          3.1119155560        0.1900739583        1.1111455991
 C          4.0199743286       -0.8897341304        0.7125395674
 C          4.0436208765       -1.2985076642       -0.5685411216
 C          4.8944576901       -2.4041646888       -1.1319672559
 C          6.3201279658       -1.9705624332       -1.4996982763
 C          7.2475672947       -1.7092340528       -0.3122334408
 H          7.2271576813       -2.5682902739        0.3590332269
 H          8.2614747336       -1.6301491372       -0.7095120117
 C          6.9248692888       -0.4308841593        0.4740579979
 H          6.2830235865        0.2154389482       -0.1291936004
 H          7.8473378163        0.1224881610        0.6637970979
 C          6.2539679793       -0.6701164148        1.8267206048
 H          6.0379195147        0.3012979833        2.2785380307
 H          6.9412117159       -1.2033556415        2.4871739379
 C          4.9401985385       -1.4588354751        1.7498554327
 H          5.1435849616       -2.5091082755        1.5419240281
 H          4.4372757551       -1.3829642828        2.7168661116
 H          6.7564711715       -2.7681921918       -2.1053744558
 H          6.2632531294       -1.0745333146       -2.1222188718
 H          4.9362522700       -3.2310550820       -0.4224207953
 H          4.3947067012       -2.7491016297       -2.0398059155
 O          3.2511615210       -0.7446113626       -1.5224713489
 C          2.3805007397        0.3009047610       -1.2331526639
 O          1.7412099593        0.6980686124       -2.2265401977
 O          3.0652421875        0.5731292841        2.3099695862
 C          1.3978017343        1.8987142048        0.4916890260
 C          0.0047415341        1.4105792961        0.7978571634
 C         -0.6423475074        1.7845438907        1.9695559424
 C         -1.9314725058        1.3532314763        2.2303217203
 C         -2.5990094233        0.5403887983        1.3319320412
 C         -1.9607269067        0.1592755397        0.1587499050
 C         -0.6690739787        0.5944096358       -0.1002849692
 H         -0.1826458694        0.3064080274       -1.0210928327
 N         -2.6265462951       -0.6761327153       -0.7574480710
 S         -4.1382340985       -0.1748897640       -1.2961395396
 O         -4.3200172643       -0.8159352395       -2.5798508870
 O         -4.2540886369        1.2650797951       -1.2731870919
 C         -5.2672326014       -0.8972337845       -0.1239479509
 C         -6.1704683334       -0.0967047754        0.5474870990
 C         -7.0462835536       -0.6842784206        1.4473585031
 C         -7.0039183468       -2.0540239152        1.6576595032
 C         -6.0922544571       -2.8442772544        0.9731893330
 C         -5.2149865663       -2.2635841739        0.0713593470
 H         -4.4937778368       -2.8409905628       -0.4828263226
 H         -6.0619943729       -3.9090747572        1.1394237503
 H         -7.6854431192       -2.5088881955        2.3590421024
 H         -7.7559133287       -0.0719255547        1.9800927628
 H         -6.1622622870        0.9643782008        0.3557263760
 H         -2.0480694221       -0.9403246707       -1.5427722702
 H         -3.6027320894        0.2011472344        1.5291591471
 H         -2.4219220978        1.6514065413        3.1441905679
 H         -0.1244081583        2.4103066085        2.6814826973
 H          1.8274443686        2.2741445805        1.4339719177
 C          1.4060730229        3.0553548366       -0.5000515248
 C          0.2436293670        3.4178698455       -1.3703709205
 C          0.6141489512        4.2973638686       -0.2161991896
 H          1.0645750005        5.2572747836       -0.4178764567
 H         -0.0375542881        4.2846315184        0.6443520843
 H          0.4574324085        3.7533780207       -2.3739706470
 H         -0.6606426930        2.8329406356       -1.2982785301
 H          2.3883928089        3.1981466941       -0.9399035761
