  62
        -98.94443069
 C         -1.9420302618       -0.8583105860        0.0498802555
 C         -2.4092580819        0.4698654235        0.1972560718
 C         -3.8245139417        0.6066740882        0.5665687796
 C         -4.5748566607       -0.4917685307        0.7677889306
 C         -6.0244181673       -0.5133453395        1.1709970449
 C         -7.0013621557       -0.3609263612       -0.0028722586
 C         -7.0756843042        1.0407116029       -0.6096918785
 H         -7.9466326676        1.0591259997       -1.2678815817
 H         -7.2508855601        1.7696520412        0.1821355497
 C         -5.8367802555        1.4465553581       -1.4202455522
 H         -6.1506759204        1.8966173723       -2.3648318291
 H         -5.2551152427        0.5557578102       -1.6685590344
 C         -4.9233118494        2.4534679087       -0.7209624979
 H         -4.0614978144        2.6410663086       -1.3667387527
 H         -5.4542342612        3.3986123326       -0.5864812229
 C         -4.3990611048        1.9888368101        0.6441350580
 H         -3.5966669197        2.6641212307        0.9517209252
 H         -5.1956207148        2.0302656082        1.3867812503
 H         -6.7297104792       -1.0798893284       -0.7791580168
 H         -7.9952090252       -0.6275446135        0.3639507324
 H         -6.2120765656        0.2695972269        1.9062661859
 H         -6.2012700110       -1.4827672075        1.6417899095
 O         -4.0779427295       -1.7513657349        0.6434795788
 C         -2.7622735085       -1.9655984016        0.2663460000
 O         -2.4440724318       -3.1683082271        0.1697697386
 O         -1.6883746544        1.4883051713        0.0335040162
 C         -0.5027635928       -1.1173419973       -0.3608693187
 C          0.4345786407       -0.4760420924        0.6327568765
 C          0.2930464085       -0.7988625145        1.9808192818
 C          1.1075191116       -0.2227033520        2.9350024436
 C          2.0897714847        0.6798744416        2.5648744242
 C          2.2442348931        1.0047904134        1.2232394301
 C          1.4240426540        0.4211273958        0.2652697700
 H          1.5555308525        0.7078003759       -0.7639169536
 N          3.2188996587        1.9339624226        0.8273237294
 S          4.1783273049        1.6649868380       -0.5127713519
 O          5.2560821728        2.6201819956       -0.3804911543
 O          3.3975969693        1.7470458112       -1.7198967633
 C          4.8049804171        0.0110636562       -0.2852911531
 C          5.8766589544       -0.1694868476        0.5677277063
 C          6.3377272635       -1.4541246443        0.8034695801
 C          5.7166844647       -2.5326816289        0.1915966360
 C          4.6425562510       -2.3345103687       -0.6618471074
 C          4.1788072074       -1.0510124021       -0.9048074269
 H          3.3500749918       -0.8583165118       -1.5655938827
 H          4.1621583070       -3.1738875100       -1.1389913255
 H          6.0730829869       -3.5335408318        0.3777982774
 H          7.1762310215       -1.6112157285        1.4626525979
 H          6.3382332270        0.6965545954        1.0137162555
 H          3.7624517126        2.3171232278        1.5866215492
 H          2.7213798311        1.1394432724        3.3098712050
 H          0.9793264033       -0.4774281458        3.9762597380
 H         -0.4776495438       -1.5013765740        2.2685903500
 H         -0.3656157900       -2.2072284470       -0.3076258758
 C         -0.2817642695       -0.6691958597       -1.7900131531
 C          0.7358823763       -1.3582893530       -2.6465544342
 C         -0.7258315365       -1.5624853518       -2.9075962487
 H         -1.1639034814       -1.1114059945       -3.7853580602
 H         -1.1660932941       -2.5117069377       -2.6378562122
 H          1.3073014213       -0.7656928230       -3.3460716106
 H          1.2820080180       -2.1793010335       -2.2065407339
 H         -0.4233996193        0.3975119656       -1.9234686135
