  62
        -98.94488671
 C         -1.9128109192       -0.1273638445        0.0584413862
 C         -2.9125866761       -0.9933298692        0.5626524328
 C         -4.2324234287       -0.3899813244        0.7753413938
 C         -4.4177492968        0.9171723848        0.5153365677
 C         -5.6986188732        1.6833031117        0.7072058069
 C         -6.6811522076        1.5620612910       -0.4657279677
 C         -7.3793285256        0.2074424366       -0.5926714210
 H         -7.8303223528       -0.0584903529        0.3638660342
 H         -8.1911876669        0.3320399248       -1.3120135713
 C         -6.4681315434       -0.9321646316       -1.0697007926
 H         -5.5638062797       -0.5127357218       -1.5167587482
 H         -6.9760763535       -1.5017040318       -1.8512840114
 C         -6.0659001597       -1.9219594911        0.0236270141
 H         -5.3925353269       -2.6621936945       -0.4158573905
 H         -6.9521256746       -2.4467700265        0.3871559102
 C         -5.3509457774       -1.2827724853        1.2212288949
 H         -6.0623949751       -0.7269696709        1.8314555239
 H         -4.9168343735       -2.0814419574        1.8276677212
 H         -6.1476971499        1.7856958569       -1.3925405854
 H         -7.4464321017        2.3297832516       -0.3298945660
 H         -5.4186658320        2.7334878961        0.8143757374
 H         -6.1862401362        1.3580522196        1.6266530537
 O         -3.4235501767        1.7217583136        0.0531161129
 C         -2.1547108696        1.2207778085       -0.2044107239
 O         -1.3521625522        2.0632159864       -0.6491173139
 O         -2.7084504758       -2.2077796747        0.8295236565
 C         -0.5276837359       -0.6885865373       -0.2095296718
 C          0.4993886196        0.0737998052        0.5890075006
 C          0.3159316040        0.1943644653        1.9652313173
 C          1.2106913693        0.9061324961        2.7385601498
 C          2.3175568152        1.5027649517        2.1591536962
 C          2.5153710430        1.3825539509        0.7899198213
 C          1.6125714718        0.6651789970        0.0144381279
 H          1.7848769539        0.6057272830       -1.0465841471
 N          3.6230575361        1.9887931049        0.1749978398
 S          4.5391538415        1.1396098029       -0.9352767571
 O          5.7727610220        1.8880360131       -1.0343289629
 O          3.8059076610        0.9556888310       -2.1608670667
 C          4.8414821490       -0.4303128176       -0.1454038992
 C          4.0512940750       -1.5178333246       -0.4563187593
 C          4.2562822166       -2.7088329760        0.2225830205
 C          5.2410167621       -2.7909539139        1.1946296192
 C          6.0303324584       -1.6900515947        1.4917879782
 C          5.8274896705       -0.4958395014        0.8200656140
 H          6.4258293342        0.3797134223        1.0134139848
 H          6.7989516965       -1.7590153039        2.2446122988
 H          5.3952876720       -3.7195446452        1.7212339070
 H          3.6449628165       -3.5665410657       -0.0088756683
 H          3.2992902311       -1.4168189538       -1.2210921922
 H          4.2167855834        2.5065978037        0.8063031674
 H          3.0142487664        2.0675187960        2.7598055861
 H          1.0489434708        0.9974337434        3.8020284632
 H         -0.5505592627       -0.2692853642        2.4168995710
 H         -0.5580511855       -1.7227857243        0.1648010517
 C         -0.2512403894       -0.7189940074       -1.6974012357
 C          0.6461235198       -1.7696384220       -2.2770420833
 C         -0.8312708955       -1.8274791417       -2.5219508381
 H         -1.2037622736       -1.5954508761       -3.5084893640
 H         -1.4055490532       -2.5818862064       -2.0041193278
 H          1.2965071360       -1.4974641523       -3.0954937043
 H          1.0657779994       -2.4950698284       -1.5962864649
 H         -0.2333883239        0.2703790546       -2.1417662711
