  62
        -98.94414196
 C         -2.1973297623       -0.7749946107       -0.0252336908
 C         -2.9145445338       -0.0990736904        0.9895338115
 C         -3.7041853279        1.0609713636        0.5551773142
 C         -3.6700341491        1.4318963079       -0.7381563365
 C         -4.4625475808        2.5625514343       -1.3262640517
 C         -5.8206439122        2.0748291912       -1.8500303743
 C         -6.5956604392        1.2156916890       -0.8509951918
 H         -7.5483364461        0.9548769699       -1.3168547582
 H         -6.0523250189        0.2823837549       -0.6864509329
 C         -6.8570631825        1.8939286524        0.5010960014
 H         -6.7266393526        2.9725537987        0.4063013235
 H         -7.8961089803        1.7169808736        0.7866627840
 C         -5.9869519875        1.3777852687        1.6486698857
 H         -6.0425647596        0.2869457615        1.6886583220
 H         -6.3983362073        1.7605686316        2.5865096912
 C         -4.5082605523        1.7830801480        1.5996098682
 H         -4.4270584489        2.8645355858        1.4711543508
 H         -4.0584701865        1.5173220614        2.5610778179
 H         -6.4178704195        2.9465131490       -2.1235337585
 H         -5.6508655287        1.4820508592       -2.7517095579
 H         -4.6078374673        3.3306872900       -0.5690818199
 H         -3.8937064597        2.9856076980       -2.1559404744
 O         -2.9348169803        0.7831135268       -1.6766441260
 C         -2.1891588302       -0.3411359402       -1.3512616276
 O         -1.5745518242       -0.8452750063       -2.3086980302
 O         -2.8897657688       -0.4454363811        2.2026874801
 C         -1.3788899123       -1.9987621481        0.3411740734
 C          0.0776536241       -1.7840660470        0.0085569637
 C          0.8696669462       -2.7475473927       -0.6016692651
 C          2.2048763601       -2.4938115834       -0.8650170071
 C          2.7789179073       -1.2827262592       -0.5269888239
 C          2.0003249273       -0.3164997129        0.0971515130
 C          0.6654664071       -0.5763204046        0.3653263532
 H          0.0611866117        0.1781367050        0.8554512337
 N          2.5720730598        0.9227293398        0.4369941451
 S          3.9968977001        0.9185757367        1.3267367917
 O          4.0937319214       -0.2552375884        2.1633964767
 O          4.0212942976        2.1956595014        2.0061749579
 C          5.2771115086        0.8949829838        0.0899147122
 C          6.2377738987       -0.0971022749        0.1118525849
 C          7.2305125909       -0.0896191270       -0.8557116609
 C          7.2452341746        0.9048004118       -1.8217067202
 C          6.2745139054        1.8955622706       -1.8280677201
 C          5.2800602234        1.8946018413       -0.8630862913
 H          4.5098624174        2.6471812040       -0.8310765892
 H          6.2889640967        2.6671569708       -2.5809332532
 H          8.0178053863        0.9082271785       -2.5743049596
 H          7.9862485044       -0.8585137334       -0.8524069795
 H          6.1823534364       -0.8528208937        0.8790582372
 H          1.9124995835        1.5779228469        0.8310628816
 H          3.8157040703       -1.0789109465       -0.7387675081
 H          2.8060031652       -3.2499207434       -1.3463696545
 H          0.4410202459       -3.6973943813       -0.8755812310
 H         -1.4648772971       -2.0916372127        1.4348478736
 C         -1.9711488200       -3.2371822515       -0.2989917025
 C         -1.8447238579       -4.5715806660        0.3714611723
 C         -3.1701007731       -3.8737442486        0.3355671915
 H         -3.9457354665       -4.2667466166       -0.3044568741
 H         -3.5410030826       -3.4302358775        1.2483788942
 H         -1.7126986896       -5.4480343546       -0.2448304004
 H         -1.3185462840       -4.6102573544        1.3133744176
 H         -1.9385092509       -3.1999221908       -1.3821174521
