  62
        -98.94447321
 C         -1.4819652709       -1.4730879601        0.4961633207
 C         -1.6106140205       -0.1973693600        1.1011558804
 C         -2.7780467104        0.5958706502        0.6950204502
 C         -3.6328580906        0.0883920401       -0.2117584396
 C         -4.8405427905        0.8007129603       -0.7472566097
 C         -4.5024767204        1.5886198699       -2.0202782999
 C         -3.2664947702        2.4774676096       -1.8824796502
 H         -2.3843864403        1.8450100695       -1.7568575201
 H         -3.1451937601        3.0141696994       -2.8258233804
 C         -3.3378897299        3.4829236299       -0.7251191105
 H         -4.3732035698        3.6062931902       -0.4053958004
 H         -2.9923836297        4.4542755498       -1.0843778807
 C         -2.4710641099        3.1211296501        0.4821532396
 H         -1.4540293699        2.9011098398        0.1493376996
 H         -2.4237328396        3.9950027302        1.1365605293
 C         -2.9598428901        1.9437032204        1.3346076099
 H         -2.3576698300        1.9238347205        2.2474451599
 H         -4.0041644800        2.0974263507        1.6144950899
 H         -5.3662350403        2.2005108000       -2.2869994500
 H         -4.3262399306        0.8776793796       -2.8308589297
 H         -5.6014650506        0.0549539204       -0.9836497595
 H         -5.2286655903        1.4717178605        0.0164954202
 O         -3.4653688409       -1.1291272000       -0.7861370693
 C         -2.3804632810       -1.9334510702       -0.4666585691
 O         -2.3476840513       -3.0081659204       -1.0948710089
 H          1.3399438894       -0.3259969608        0.2555011702
 C          1.4559471291       -1.1442888110       -0.4404572296
 C          0.6986361989       -2.2968996008       -0.2659820393
 C          0.8445732286       -3.3372081811       -1.1746073790
 C          1.7272730486       -3.2175265915       -2.2337468891
 C          2.4931777388       -2.0770895617       -2.3931753494
 C          2.3573110391       -1.0316038115       -1.4863320797
 N          3.1149925394        0.1432394183       -1.6152389800
 S          3.8150440996        0.8083520385       -0.2432783302
 O          4.9500968797        1.5545161882       -0.7468682505
 O          4.1122902194       -0.2074406713        0.7395799000
 C          2.6176531599        1.9635912190        0.3837665395
 C          2.1548756300        2.9484222388       -0.4668907107
 C          1.2695360703        3.8927403191        0.0251129091
 C          0.8669029203        3.8377199096        1.3516438792
 C          1.3355329402        2.8395449397        2.1900836194
 C          2.2224477599        1.8927112094        1.7038040196
 H          2.6066261398        1.0969617594        2.3222360598
 H          1.0099412102        2.7869442300        3.2161620294
 H          0.1797934205        4.5759223098        1.7339444390
 H          0.8943268104        4.6676213991       -0.6242383010
 H          2.4970378600        2.9607031585       -1.4885373507
 H          3.7630556593        0.1407223680       -2.3899635201
 H          3.1903998388       -1.9922205521       -3.2132814995
 H          1.8275424484       -4.0286044817       -2.9392793089
 H          0.2530908384       -4.2307276809       -1.0634749787
 C         -0.2828701410       -2.3256025103        0.8793877308
 H          0.1830058391       -1.8058031102        1.7284290707
 C         -0.6758565213       -3.7183882401        1.3209808112
 C          0.3170767286       -4.5534133501        2.0710459313
 C         -0.8780588413       -3.9925236297        2.7798388813
 H         -1.6687514914       -4.6674280794        3.0715262815
 H         -0.7261197910       -3.1747181995        3.4690802211
 H          1.2821842587       -4.1139445503        2.2754996012
 H          0.3496965683       -5.6148805202        1.8786325816
 H         -1.3403860514       -4.2188359801        0.6278989714
 O         -0.7920201104        0.2522601501        1.9466095902
