  62
        -98.93772574
 C         -1.9727089672       -0.9337181308        0.0085010877
 C         -2.3048902679        0.0217817526        0.9937707791
 C         -2.6349544062        1.3748857512        0.5175095075
 C         -2.5824177225        1.6413928320       -0.8010331662
 C         -2.8032589970        2.9324454816       -1.5616543128
 C         -3.5311696463        4.1081755960       -0.9140538537
 C         -5.0022637872        3.8538143900       -0.5891747565
 H         -5.3902896758        4.7308180107       -0.0665326392
 H         -5.5542198390        3.7526093528       -1.5268158794
 C         -5.2859472487        2.6108007559        0.2505032296
 H         -5.0172644512        1.7162756693       -0.3151084452
 H         -6.3635883748        2.5670799843        0.4296586937
 C         -4.5872505858        2.5656290770        1.6084626328
 H         -5.0114400935        1.7275567541        2.1677132216
 H         -4.8011930447        3.4807993607        2.1636548988
 C         -3.0613038598        2.3629287040        1.5645383119
 H         -2.5359875253        3.3066252286        1.4340828147
 H         -2.7458071328        1.9457537539        2.5256051763
 H         -2.9985974933        4.4376505457       -0.0266997390
 H         -3.4888885436        4.9311221826       -1.6328270503
 H         -1.8051511580        3.2680068073       -1.8657153463
 H         -3.3274923635        2.6481586431       -2.4795492032
 O         -2.2349394768        0.6891747910       -1.7157416275
 C         -1.9225337276       -0.6075782520       -1.3449872731
 O         -1.6309961112       -1.3577714460       -2.2963109226
 O         -2.3213762438       -0.2423755806        2.2286226033
 C         -1.6087348675       -2.3419888930        0.4332692147
 C         -0.2137687262       -2.7023237843       -0.0188267369
 C          0.1430171233       -3.9936962019       -0.3880763377
 C          1.4425180661       -4.2797998083       -0.7690315609
 C          2.4097137797       -3.2928881329       -0.7893182860
 C          2.0620967522       -1.9953781727       -0.4264940117
 C          0.7640196869       -1.7161618340       -0.0328599969
 H          0.5098262804       -0.7067392131        0.2582054172
 N          3.0105871302       -0.9622929879       -0.4889652401
 S          2.8086132578        0.4406805401        0.4159773728
 O          2.5666638833        0.1160159704        1.8048972424
 O          1.8287214520        1.2804138410       -0.2285367159
 C          4.4319713823        1.1551203663        0.2317856846
 C          4.7213690320        1.8577097847       -0.9227071285
 C          5.9922694318        2.3859829035       -1.0850143551
 C          6.9479751563        2.2029525892       -0.0964715955
 C          6.6425887443        1.4974408480        1.0576673334
 C          5.3735862165        0.9656217654        1.2256816835
 H          5.0870813616        0.4177258381        2.1089011278
 H          7.3861750369        1.3600249860        1.8259937278
 H          7.9358511375        2.6160536988       -0.2251810965
 H          6.2316373687        2.9380177864       -1.9795258762
 H          3.9431538359        1.9806705029       -1.6580905950
 H          3.9664419087       -1.2892264049       -0.4884299519
 H          3.4208237705       -3.5161007618       -1.0930346890
 H          1.7055326122       -5.2873127228       -1.0535142434
 H         -0.5983237412       -4.7759311483       -0.3788786087
 H         -1.6138530879       -2.3263779057        1.5347275247
 C         -2.6604535620       -3.3236203844       -0.0453136727
 C         -3.0161603617       -4.5247819820        0.7776765944
 C         -3.9748897273       -3.3784452512        0.6722943689
 H         -4.8755687199       -3.5059702751        0.0908603901
 H         -4.0956710813       -2.7304674049        1.5284117791
 H         -3.2624341808       -5.4439822627        0.2677428037
 H         -2.4961141080       -4.6618723949        1.7138381267
 H         -2.6749855087       -3.4164973532       -1.1256520237
