  62
        -98.93818517
 C          0.8664829320        1.1125295790        0.2934016531
 C          1.5262205748        0.2484787292        1.2021918472
 C          2.5076479901       -0.6767930327        0.6231153890
 C          2.6847400896       -0.6923999838       -0.7105709137
 C          3.7038089471       -1.5270087726       -1.4300075391
 C          5.0295909043       -0.7675628974       -1.5841937516
 C          5.5357608476       -0.1326412582       -0.2889851922
 H          6.4894648319        0.3495847776       -0.5142798100
 H          4.8430515981        0.6544140104        0.0177114522
 C          5.7248927475       -1.1198129073        0.8713245183
 H          6.6827969423       -0.9147006215        1.3539213936
 H          5.7683615676       -2.1397518363        0.4876150873
 C          4.6517812927       -1.0334349309        1.9583741250
 H          4.9930297831       -1.6120761625        2.8210578124
 H          4.5418519958        0.0039820532        2.2845224666
 C          3.2669090313       -1.5652419586        1.5679127098
 H          3.3674625136       -2.5730188013        1.1591241781
 H          2.6627258569       -1.6218921160        2.4783987709
 H          5.7811170058       -1.4592233664       -1.9690991095
 H          4.8893321086        0.0268244134       -2.3206392680
 H          3.3189802978       -1.7630278930       -2.4228843476
 H          3.8666987562       -2.4525162962       -0.8813490596
 O          1.9815448273        0.0975181429       -1.5563634005
 C          1.0744418265        1.0386793370       -1.0846088948
 O          0.5428702461        1.7139421730       -1.9816033143
 O          1.3131673642        0.2606764606        2.4456259986
 C         -0.0934767563        2.1415124839        0.8793042401
 C         -1.4181104932        2.0682664530        0.1653162583
 C         -1.8589495561        2.8984248237       -0.8584807320
 C         -3.0892040816        2.6874019626       -1.4570434256
 C         -3.8999464452        1.6354337662       -1.0756462548
 C         -3.4649669335        0.7858879281       -0.0656159802
 C         -2.2455090123        1.0159978004        0.5497552202
 H         -1.9298687242        0.3538024490        1.3435740970
 N         -4.2455287966       -0.3069915524        0.3412885601
 S         -3.5019271636       -1.7078451007        0.8510835513
 O         -4.4860994318       -2.7429055662        0.6111496384
 O         -3.0668650296       -1.5737249351        2.2186634484
 C         -2.0979228812       -1.9744875927       -0.2197947156
 C         -0.9220214581       -2.4367902288        0.3337686059
 C          0.1428257636       -2.7351754035       -0.5005600166
 C          0.0207901428       -2.5479404033       -1.8678910289
 C         -1.1617709746       -2.0691070398       -2.4086588602
 C         -2.2367335183       -1.7898021551       -1.5810385009
 H         -3.1706106919       -1.4324636082       -1.9831243320
 H         -1.2494443683       -1.9151708865       -3.4720724582
 H          0.8525566960       -2.7759254184       -2.5152144424
 H          1.0618134435       -3.1076924301       -0.0782089536
 H         -0.8575328841       -2.5489598308        1.4047042567
 H         -5.0614708248       -0.4896829622       -0.2239149780
 H         -4.8532837504        1.4680443887       -1.5528515785
 H         -3.4121588650        3.3475701422       -2.2476200684
 H         -1.2406576448        3.6967678505       -1.2248836289
 H         -0.2775163854        1.7777333813        1.9035300103
 C          0.6252570616        3.4730863245        1.0571395997
 C          1.0120978450        4.4035874279       -0.0511132073
 C         -0.0223069391        4.8199515695        0.9527600921
 H          0.2532109881        5.5686339818        1.6808703047
 H         -1.0553879797        4.8671974535        0.6490924629
 H          1.9880026365        4.8654536007        0.0030306957
 H          0.7198851075        4.1487092461       -1.0567122327
 H          1.3679841075        3.3682848926        1.8452267977
