  62
        -98.94558756
 C         -2.3392767604       -0.1859850661        0.1203802147
 C         -1.5424499176        0.4087324892       -0.8824247915
 C         -1.3717670810        1.8709240140       -0.8155252498
 C         -1.9015716432        2.5462496404        0.2212461578
 C         -1.9181371941        4.0243861721        0.5513318266
 C         -1.0570075533        5.0101713087       -0.2321837467
 C          0.4435962443        4.8835999941        0.0264044759
 H          0.9659626058        5.5664489708       -0.6476447174
 H          0.6481340271        5.2050367782        1.0508678645
 C          1.0254775913        3.4820513669       -0.1407486084
 H          0.5961272774        2.8013860168        0.5979467044
 H          2.0971183463        3.5356914179        0.0751138344
 C          0.8631427823        2.8721601220       -1.5307184482
 H          1.2603830129        3.5585031642       -2.2817578783
 H          1.4672453506        1.9617349404       -1.5537805126
 C         -0.5736579477        2.4921310150       -1.9274585915
 H         -1.1058250869        3.3479488357       -2.3379627999
 H         -0.5136908418        1.7350332856       -2.7150193062
 H         -1.2702289698        4.9357365688       -1.2943162668
 H         -1.3623579353        6.0111867741        0.0845968968
 H         -1.6635195329        4.0936707956        1.6141409698
 H         -2.9664219603        4.3323554060        0.4657607718
 O         -2.6163283096        1.9177023068        1.2015272621
 C         -2.8535768623        0.5565388530        1.1794679889
 O         -3.5268223707        0.1324750226        2.1426973026
 O         -1.0025143048       -0.2516330048       -1.8097668730
 C         -2.5745863939       -1.6861611963        0.1131309838
 C         -1.2478655830       -2.4054285533        0.1594342017
 C         -0.9448463708       -3.5183843146       -0.6148938798
 C          0.3068309405       -4.1053479043       -0.5375321321
 C          1.2863280470       -3.5835126703        0.2880138141
 C          0.9884155867       -2.4765572256        1.0743973539
 C         -0.2795208056       -1.9211687166        1.0292424466
 H         -0.4998627709       -1.0656072437        1.6508718029
 N          1.9532073850       -1.8849043465        1.9161027163
 S          2.3589972546       -0.2859300305        1.6107829971
 O          3.4055522400        0.0205994515        2.5627915754
 O          1.1830080521        0.5418398372        1.6683622943
 C          3.0551548670       -0.3136782115       -0.0322847803
 C          2.2242953161       -0.4814038512       -1.1224280495
 C          2.7922415045       -0.5722895512       -2.3849821440
 C          4.1673470914       -0.4931099883       -2.5372893245
 C          4.9875037831       -0.3236188374       -1.4316207381
 C          4.4286980705       -0.2393434863       -0.1669636968
 H          5.0250265480       -0.1086763870        0.7216120671
 H          6.0571390743       -0.2599664062       -1.5504011561
 H          4.6004472073       -0.5630265322       -3.5226261369
 H          2.1437065853       -0.7014054778       -3.2367655238
 H          1.1546030908       -0.5324803149       -0.9913431918
 H          2.8006193851       -2.4285582484        2.0095538788
 H          2.2715214226       -4.0234727880        0.3247679166
 H          0.5290350159       -4.9693450853       -1.1449160612
 H         -1.6866071867       -3.9220779419       -1.2844175793
 H         -3.1209511148       -1.9121064722        1.0410280450
 C         -3.4327666429       -2.0803037425       -1.0712883095
 C         -4.3554904639       -3.2573310699       -0.9793568679
 C         -4.9135302946       -1.8667602600       -0.9924654149
 H         -5.4335126360       -1.5250925301       -1.8747389110
 H         -5.3055983197       -1.4609291346       -0.0708350355
 H         -4.4978216734       -3.8716007081       -1.8556559208
 H         -4.3804697936       -3.8022856587       -0.0477329005
 H         -2.9485655885       -1.8790097122       -2.0197910783
