  62
        -98.94353432
 C          1.8519051038        0.8260426872        0.7726881258
 C          2.1344542678        0.4325371472       -0.5576438570
 C          3.5545601660        0.4463637646       -0.9379381753
 C          4.4746482824        0.8446872534       -0.0404932229
 C          5.9566847419        0.8515774984       -0.2772725283
 C          6.5936481060       -0.4748256237        0.1607245496
 C          5.8742923476       -1.7123314118       -0.3761862977
 H          6.4280148477       -2.5869609115       -0.0277518037
 H          4.8772532846       -1.7663111742        0.0671697723
 C          5.7503542984       -1.7610189820       -1.9054666840
 H          6.0081158680       -2.7663137321       -2.2453488791
 H          6.4664337773       -1.0733491401       -2.3568851381
 C          4.3491911425       -1.4557574582       -2.4384975719
 H          3.6153309107       -2.0778692436       -1.9195878517
 H          4.3212432740       -1.7303757626       -3.4963299294
 C          3.8996630797        0.0070303324       -2.3329909195
 H          4.6606805606        0.6585955310       -2.7669890158
 H          2.9800530319        0.1142131449       -2.9154303856
 H          6.5836389879       -0.5198343338        1.2523119506
 H          7.6338873719       -0.4845103799       -0.1697690069
 H          6.3946233790        1.6641604353        0.3048134492
 H          6.1502760097        1.0285726817       -1.3333303466
 O          4.1597850889        1.2435391126        1.2190141247
 C          2.8471038374        1.2290062513        1.6619158045
 O          2.6981907193        1.5890472764        2.8477521669
 O          1.2502890849        0.0857802950       -1.3826839136
 C          0.4178450611        0.8190037855        1.2685055664
 C         -0.1896611360       -0.5528370813        1.1021861467
 C          0.5551362085       -1.6732519931        1.4623869306
 C          0.0339978563       -2.9441261036        1.3216968268
 C         -1.2494736290       -3.1257589087        0.8368565660
 C         -2.0077631143       -2.0152912032        0.4896320771
 C         -1.4759790390       -0.7391703034        0.6212360472
 H         -2.0811618393        0.1085190007        0.3473499566
 N         -3.3052303631       -2.1656577501       -0.0188168556
 S         -4.5117973929       -1.0905501686        0.4061483414
 O         -4.3536543950       -0.6172705082        1.7615489042
 O         -5.7430244368       -1.7982279654        0.1238056412
 C         -4.3548554886        0.2619804113       -0.7409270935
 C         -3.9885908763        0.0027498937       -2.0466474742
 C         -3.9120583452        1.0582997234       -2.9411888742
 C         -4.2095915423        2.3459096307       -2.5213128695
 C         -4.5823776388        2.5886721002       -1.2084522635
 C         -4.6565631260        1.5378588121       -0.3073702868
 H         -4.9306925969        1.6828811089        0.7256088614
 H         -4.8135677512        3.5907732908       -0.8831821073
 H         -4.1487747753        3.1650841105       -3.2204128513
 H         -3.6187002102        0.8737154104       -3.9621138944
 H         -3.7592062797       -1.0079779115       -2.3400306185
 H         -3.6432974334       -3.1157093655       -0.0618616148
 H         -1.6588835474       -4.1184451634        0.7266386399
 H          0.6284058782       -3.8024695370        1.5973776301
 H          1.5556357365       -1.5325011463        1.8494787099
 H          0.4642483127        1.0401114185        2.3454921868
 C         -0.3704722844        1.9148901923        0.5808459925
 C         -1.5170158030        2.5789350225        1.2802374675
 C         -0.2319227675        3.3220030972        1.0758643147
 H         -0.2087359844        4.1233760765        0.3530292919
 H          0.4102187908        3.4845875596        1.9295557001
 H         -2.3751918880        2.8706798473        0.6939059376
 H         -1.7601481054        2.2408386778        2.2766114397
 H         -0.4419386727        1.7643593657       -0.4904200133
