  62
        -98.93840322
 C         -2.6208822740       -0.2918122748        0.0285208705
 C         -2.2541204128       -1.2833243400       -0.9110149877
 C         -1.5787325531       -2.4672792175       -0.3682761623
 C         -1.3804007392       -2.5680126483        0.9583697460
 C         -0.6826346696       -3.6944609602        1.6707642724
 C          0.8288367721       -3.7976773189        1.3825808873
 C          1.1889963464       -4.8104823119        0.2882471320
 H          2.0920322128       -5.3455818344        0.5889322525
 H          0.3919270060       -5.5523658543        0.2206785798
 C          1.4596352278       -4.2271381367       -1.1023622885
 H          2.4642106118       -3.7978611432       -1.1204079312
 H          1.4374560455       -5.0498707083       -1.8210605866
 C          0.4979257628       -3.1345875987       -1.5719348717
 H          0.6765016555       -2.9548621420       -2.6349165011
 H          0.7356333688       -2.1946489940       -1.0653951969
 C         -0.9961710674       -3.4445088539       -1.3472267501
 H         -1.5450939798       -3.3185359949       -2.2829701839
 H         -1.1305171539       -4.4681751604       -1.0007960630
 H          1.3122021307       -4.1089699884        2.3100969212
 H          1.2118957802       -2.8070987448        1.1326346516
 H         -1.1723455301       -4.6373781278        1.4181949476
 H         -0.8342607191       -3.5091752295        2.7357920049
 O         -1.8209565298       -1.6284650801        1.8373615861
 C         -2.3836502777       -0.4421237920        1.3946452396
 O         -2.6406069491        0.3735947573        2.3017040580
 O         -2.4665106826       -1.1729958670       -2.1508942225
 C         -3.1221082572        1.0476517070       -0.4767278888
 C         -2.1021609262        2.1143584840       -0.1470605345
 C         -2.4401395536        3.4207975562        0.1807555149
 C         -1.4510541662        4.3450111811        0.4747226138
 C         -0.1153922140        3.9892744765        0.4645277360
 C          0.2336288205        2.6812668486        0.1407059207
 C         -0.7562139588        1.7725040900       -0.1883426467
 H         -0.4706941240        0.7685402533       -0.4654110264
 N          1.5731945844        2.2633484391        0.1907248860
 S          2.0495198797        0.7587194138       -0.3834866798
 O          1.7795567168        0.6405062550       -1.8002962627
 O          1.5001816262       -0.2671127637        0.4672417627
 C          3.8066351152        0.8865351679       -0.1146001604
 C          4.3082812713        0.6067405988        1.1422447136
 C          5.6700517720        0.7362001069        1.3646159565
 C          6.5029122221        1.1425314550        0.3325294020
 C          5.9857095637        1.4174941793       -0.9244602183
 C          4.6245498248        1.2899553561       -1.1530397703
 H          4.1784114505        1.4816425063       -2.1156664356
 H          6.6358614638        1.7295849045       -1.7257340273
 H          7.5622665713        1.2424677985        0.5084426414
 H          6.0756296211        0.5196607446        2.3396909916
 H          3.6224090502        0.2874142256        1.9099685123
 H          2.2473818986        2.9912215496        0.0054955863
 H          0.6501698857        4.7071041283        0.7142882919
 H         -1.7271995984        5.3580455052        0.7252897862
 H         -3.4769851639        3.7138854197        0.2102225079
 H         -3.1708201810        0.9482875492       -1.5725565025
 C         -4.5075004992        1.3607888677        0.0475091117
 C         -5.4728688793        2.1507721596       -0.7836100009
 C         -5.6867210515        0.6819718384       -0.5805421216
 H         -6.4948657444        0.3581433592        0.0576275789
 H         -5.4892140585        0.0154437833       -1.4076229791
 H         -6.1402979791        2.8369955399       -0.2844950046
 H         -5.1418504208        2.4821127322       -1.7564198339
 H         -4.5214164224        1.4968275264        1.1227717790
