  62
        -98.94359988
 C         -1.7197556167       -1.2717155774       -0.0168135768
 C         -1.8392197765        0.0242909006       -0.5746679143
 C         -3.2100666442        0.4639395459       -0.8747798871
 C         -4.2389403623       -0.3683213296       -0.6317545429
 C         -5.6858040690       -0.0256426443       -0.8361262293
 C         -6.3005291921        0.5659613436        0.4401580437
 C         -5.4695029413        1.6877414048        1.0632460890
 H         -6.0146839125        2.0483476985        1.9383125309
 H         -4.5239272120        1.2746479264        1.4221460552
 C         -5.1813375724        2.8635858664        0.1194293886
 H         -5.8776375736        2.8438160452       -0.7197666241
 H         -5.3529880193        3.7964459356        0.6606747514
 C         -3.7475879404        2.9136412846       -0.4120317588
 H         -3.5944848490        3.8884486349       -0.8826490194
 H         -3.0446702209        2.8382387807        0.4216140724
 C         -3.3821015627        1.8426303435       -1.4475120279
 H         -4.1222801383        1.8384766401       -2.2501295872
 H         -2.4112255073        2.1111245437       -1.8736782202
 H         -7.2985481599        0.9387645070        0.2024292077
 H         -6.4036945594       -0.2336719015        1.1774901267
 H         -5.7741539599        0.6832696528       -1.6569598061
 H         -6.2225606548       -0.9392252941       -1.0972090784
 O         -4.0802107245       -1.6152455174       -0.1173253476
 C         -2.8228585821       -2.0914007902        0.2172551947
 O         -2.8193941516       -3.2389863471        0.7082861766
 O         -0.8578167570        0.7750489642       -0.8088871083
 C         -0.3474827465       -1.8059534064        0.3526424265
 C          0.3113985185       -0.8668241710        1.3332044325
 C         -0.3909232279       -0.4770744510        2.4711368747
 C          0.1681338735        0.4032296093        3.3765628347
 C          1.4351417012        0.9189475318        3.1651786722
 C          2.1468559601        0.5327150932        2.0356291217
 C          1.5882329649       -0.3678597552        1.1378310436
 H          2.1612630752       -0.6741911620        0.2807252215
 N          3.4049053552        1.0772168422        1.7722478892
 S          4.5045804338        0.4158376100        0.7175095029
 O          4.6807395956       -1.0002711759        0.9432557420
 O          5.6894843105        1.2286551004        0.8917638415
 C          3.8216655251        0.6934716992       -0.9037975481
 C          3.1506731734        1.8706738893       -1.1655464941
 C          2.6241837220        2.0723857063       -2.4310014770
 C          2.7805028478        1.1025864893       -3.4089229150
 C          3.4650457479       -0.0708899100       -3.1332187172
 C          3.9924491060       -0.2790031154       -1.8691971663
 H          4.5207148441       -1.1820975760       -1.6061582873
 H          3.5838415775       -0.8249403146       -3.8951548856
 H          2.3619755081        1.2599005815       -4.3906372106
 H          2.0845671447        2.9802113790       -2.6472407135
 H          3.0346589208        2.6012869299       -0.3825768787
 H          3.8063507546        1.6731365157        2.4781428265
 H          1.8663274335        1.6183034610        3.8648484893
 H         -0.3881098318        0.6964215984        4.2544800077
 H         -1.3855740114       -0.8717350150        2.6313604120
 H         -0.5174713936       -2.7682169497        0.8574892477
 C          0.4700876322       -2.0475498159       -0.8992707313
 C          1.5522944895       -3.0833759589       -0.9049794952
 C          0.2782707829       -3.3260865212       -1.6556791925
 H          0.3009092415       -3.2953507373       -2.7344500094
 H         -0.4270082584       -4.0392171502       -1.2537356486
 H          2.4519116762       -2.8859493678       -1.4678024756
 H          1.7211629835       -3.6362531966        0.0069268408
 H          0.6251207471       -1.1430957066       -1.4771279945
