  62
        -98.94201626
 C         -0.7128370029       -1.3116271238        0.5366047171
 C         -1.1533383167       -0.8419419934       -0.7219640938
 C         -2.1416851362        0.2511974008       -0.6995830232
 C         -2.5405985519        0.7473019331        0.4843292206
 C         -3.6196716530        1.7654731716        0.7298925509
 C         -4.9695292457        1.0684899948        0.9764265120
 C         -5.7845875131        0.7799923243       -0.2835481493
 H         -6.6502660522        0.1861471174        0.0189393671
 H         -6.1601480067        1.7210308268       -0.6908037872
 C         -5.0381656925        0.0307703729       -1.3904298345
 H         -5.7832130590       -0.4296854229       -2.0423654080
 H         -4.4477732433       -0.7773611584       -0.9545848486
 C         -4.1338927461        0.9411989385       -2.2344010468
 H         -4.3448626684        0.7766057402       -3.2929699969
 H         -4.3845353140        1.9812641597       -2.0275252612
 C         -2.6251809229        0.7223032805       -2.0434746207
 H         -2.2782037713       -0.0436639108       -2.7439104237
 H         -2.0932365773        1.6441556527       -2.2977082291
 H         -5.5747628184        1.6979335694        1.6320476548
 H         -4.7743793708        0.1350162278        1.5106879675
 H         -3.3421696147        2.3092858248        1.6341834007
 H         -3.6891646700        2.4635732526       -0.0979903006
 O         -2.0364811611        0.3103579644        1.6722549520
 C         -1.1227940445       -0.7247375536        1.7318558009
 O         -0.7561489549       -1.0266500558        2.8870177849
 H          1.6055146509       -0.2114571125        0.4703295746
 C          2.0588185868       -0.9681141929       -0.1537356074
 C          1.4795949721       -2.2289745374       -0.2150733267
 C          2.0813683281       -3.1992231947       -1.0062823804
 C          3.2257454910       -2.9028248430       -1.7258939275
 C          3.7957156353       -1.6450775475       -1.6663220203
 C          3.2040166897       -0.6680774327       -0.8723840671
 N          3.7356428000        0.6256265944       -0.8201022769
 S          3.4607868448        1.6463319182        0.4640307422
 O          4.4211733335        2.7138443722        0.2764115591
 O          3.5324703321        0.9575726342        1.7320427172
 C          1.8290239568        2.3010758837        0.1917099651
 C          0.9833025379        2.4700212639        1.2694231024
 C         -0.2536672355        3.0591634458        1.0659565534
 C         -0.6236689898        3.4632883625       -0.2068882749
 C          0.2329490829        3.2774331126       -1.2806867780
 C          1.4741674848        2.6951151336       -1.0826365768
 H          2.1669615294        2.5416684581       -1.8930990677
 H         -0.0586971133        3.5904682771       -2.2705264947
 H         -1.5839689824        3.9291311879       -0.3594201146
 H         -0.9191814129        3.1973166909        1.9029551612
 H          1.3022046698        2.1293720114        2.2427459525
 H          4.6320981371        0.7594881958       -1.2620295878
 H          4.6861784253       -1.4144217304       -2.2306064104
 H          3.6814249629       -3.6636456344       -2.3413026605
 H          1.6529721864       -4.1863231609       -1.0637783932
 C          0.2423462462       -2.4876787892        0.6091445169
 H          0.5495423441       -2.5679840326        1.6631902309
 C         -0.4848940543       -3.7582881520        0.2144559803
 C         -0.1134131274       -5.0719304636        0.8320398158
 C         -1.4008705755       -4.4041342246        1.2085473345
 H         -2.3279911287       -4.8309810805        0.8563425973
 H         -1.4747930894       -3.9437033388        2.1834538761
 H         -0.1598973441       -5.9613927080        0.2218106599
 H          0.6849521553       -5.0753969181        1.5588957072
 H         -0.7993783007       -3.7490823571       -0.8231035610
 O         -0.7582742160       -1.3262800245       -1.8145964663
