  62
        -98.93977766
 C         -0.7492971385       -1.9089133586        0.3698169467
 C         -1.3460218500       -0.8137089278        1.0357904547
 C         -2.6541687872       -0.3529573041        0.5310025807
 C         -3.1879970021       -0.9724977604       -0.5380887931
 C         -4.4720391833       -0.6561178894       -1.2584528652
 C         -4.3552423417        0.5894579824       -2.1493329428
 C         -3.6916604537        1.7904894341       -1.4813285379
 H         -2.6796601236        1.5190016719       -1.1756765477
 H         -3.6053500166        2.5785397246       -2.2338003505
 C         -4.4487516130        2.3639316469       -0.2859747630
 H         -3.9457375091        3.2899552542       -0.0000909431
 H         -5.4642379170        2.6210662430       -0.5950317114
 C         -4.5285320428        1.4658509260        0.9519749369
 H         -5.3131505460        0.7204579471        0.8497363158
 H         -4.8153502227        2.0994839872        1.7961236136
 C         -3.2169050011        0.7903978439        1.3399722530
 H         -3.3141543320        0.4032189872        2.3614048574
 H         -2.4216640543        1.5416205059        1.3910232714
 H         -5.3559530966        0.8637930617       -2.4881400940
 H         -3.7626019128        0.3230713889       -3.0280502279
 H         -4.6954017636       -1.5175536129       -1.8918152334
 H         -5.2859484274       -0.5469978921       -0.5483027116
 O         -2.5605701910       -2.0075186060       -1.1670147782
 C         -1.3376492026       -2.4973733559       -0.7490112945
 O         -0.8996201422       -3.4361287196       -1.4407712400
 O         -0.8097211712       -0.2331368294        2.0184964113
 C          0.6082320703       -2.3966694676        0.8474371127
 C          1.6326591459       -2.0016482441       -0.1869029831
 C          2.2955974481       -2.9076098889       -1.0035710642
 C          3.1802512882       -2.4575015701       -1.9684602633
 C          3.4350516941       -1.1073966939       -2.1230394871
 C          2.7812964683       -0.1924423335       -1.3045930468
 C          1.8827371221       -0.6439939561       -0.3528851673
 H          1.3689621876        0.0680983923        0.2775489426
 N          3.0054194675        1.1872644557       -1.4342875391
 S          3.1623188495        2.1156619376       -0.0484782881
 O          3.9161480776        3.2759948300       -0.4783761866
 O          3.7421222778        1.3555160924        1.0342859920
 C          1.5162196985        2.6484249654        0.3639355779
 C          1.1216860385        2.6494266464        1.6863945510
 C         -0.1237542075        3.1590985820        2.0145647597
 C         -0.9479582203        3.6568739060        1.0176848754
 C         -0.5429142635        3.6365931243       -0.3086571985
 C          0.7032372351        3.1319117384       -0.6420607053
 H          1.0552801549        3.1063950347       -1.6601107931
 H         -1.1932722195        4.0146695566       -1.0812192262
 H         -1.9121096953        4.0653610015        1.2784243595
 H         -0.4465905725        3.1582371044        3.0431999214
 H          1.7896354548        2.2448187423        2.4299820484
 H          3.6962125261        1.4403868457       -2.1262593571
 H          4.1312458411       -0.7599579031       -2.8715029019
 H          3.6839226481       -3.1697963871       -2.6044440203
 H          2.1082904630       -3.9629329424       -0.8957017180
 H          0.8190259252       -1.8245905033        1.7624508781
 C          0.5997190620       -3.8712018073        1.1840621747
 C          1.6894185960       -4.4360458011        2.0440531348
 C          0.3005355875       -4.2970439743        2.5889128636
 H         -0.2858582084       -5.1905533151        2.7421906430
 H          0.1121815747       -3.5211713529        3.3166271466
 H          2.0588656577       -5.4264912196        1.8261999130
 H          2.4457885114       -3.7529154982        2.4008858122
 H          0.2084384915       -4.4885092395        0.3844661739
