  62
        -98.94159452
 C         -2.7816052796       -0.6634703302       -0.3032525194
 C         -2.1417424295        0.2725570392       -1.1523499200
 C         -2.4630181497        1.6869870094       -0.9096226210
 C         -3.3563685899        2.0137782099        0.0403554587
 C         -3.7393842000        3.4140748302        0.4196211476
 C         -2.8614748803        3.9403310710        1.5633267774
 C         -1.3622800202        3.7388369010        1.3389604979
 H         -1.1309745701        2.6703950510        1.3540051586
 H         -0.8430745404        4.1844952116        2.1906192576
 C         -0.8245368200        4.3496776201        0.0376614375
 H          0.1123254599        4.8653678603        0.2582872974
 H         -1.5264312000        5.0942407998       -0.3410569031
 C         -0.5202181798        3.3293667494       -1.0611808017
 H          0.0997673002        2.5277891097       -0.6482154511
 H          0.0655110603        3.8321715889       -1.8359448520
 C         -1.7447490296        2.7074953489       -1.7463873915
 H         -1.3957207894        2.1751059383       -2.6358611311
 H         -2.4281901996        3.4974672486       -2.0647917422
 H         -3.1411027004        3.4205953816        2.4826974877
 H         -3.0697484504        5.0035237711        1.6968654767
 H         -4.7805324801        3.4081438703        0.7468105175
 H         -3.6453743999        4.0594611996       -0.4514098028
 O         -3.9908223399        1.0868940304        0.8023856992
 C         -3.6940416198       -0.2579066597        0.6764653201
 O         -4.3126134199       -0.9920640392        1.4732705005
 O         -1.3403635393       -0.0296111313       -2.0776971896
 C         -2.4890623895       -2.1582404803       -0.3371808784
 C         -1.1839281196       -2.4016660397        0.3826332920
 C         -1.1562221698       -3.0043019688        1.6349679324
 C          0.0350547001       -3.1396424083        2.3273563927
 C          1.2203460201       -2.6654335786        1.7930907326
 C          1.1994312203       -2.0605264494        0.5442416622
 C          0.0110515504       -1.9502027100       -0.1593666881
 H          0.0043993306       -1.4573891906       -1.1201886884
 N          2.3982014904       -1.5222766797        0.0059432521
 S          2.8429714201       -0.0777585591        0.7742176612
 O          3.0903177899       -0.3656274782        2.1643410114
 O          1.8690579201        0.9578571206        0.5022525803
 C          4.3784894603        0.2778932104       -0.0572777688
 C          5.5240496802       -0.3663786392        0.3684178818
 C          6.7131164503       -0.1310108796       -0.3027801181
 C          6.7356362705        0.7375633197       -1.3839830987
 C          5.5774124205        1.3769855193       -1.7991809693
 C          4.3843622604        1.1450329897       -1.1324100394
 H          3.4611523704        1.6250053094       -1.4168530499
 H          5.5976222006        2.0530722388       -2.6388304898
 H          7.6619483606        0.9191148994       -1.9057795186
 H          7.6163228303       -0.6246252493        0.0178242724
 H          5.4583618601       -1.0267548286        1.2169650123
 H          2.2667632905       -1.3002815203       -0.9746249681
 H          2.1480900501       -2.7302709781        2.3371491728
 H          0.0382162899       -3.6076697376        3.3002898530
 H         -2.0829782399       -3.3427550886        2.0761260025
 H         -3.2895947496       -2.6322887099        0.2458722118
 C         -2.4963880592       -2.7489875912       -1.7324369880
 C         -2.6540308291       -4.2307015213       -1.8881512670
 C         -3.7711521491       -3.3122922917       -2.2810005478
 H         -3.9840803889       -3.1748471724       -3.3304345280
 H         -4.6470277292       -3.2737688713       -1.6495885980
 H         -2.0985961889       -4.7282106018       -2.6681479366
 H         -2.7728742692       -4.8168726707       -0.9894127566
 H         -1.8452633591       -2.2343498316       -2.4258164482
