  62
        -98.93633887
 C         -1.0581691507       -1.5202216106        0.7751139797
 C         -1.6876099309       -1.2707552796       -0.4684015401
 C         -2.6937441306       -0.1912929293       -0.4883216392
 C         -2.8891386202        0.5530057600        0.6126170814
 C         -3.8630549399        1.6833263401        0.8371052523
 C         -4.1058070597        2.6617776910       -0.3177155070
 C         -2.8635319198        2.9812659812       -1.1616085969
 H         -1.9722479198        2.5795278307       -0.6779974173
 H         -2.7461827995        4.0641757313       -1.2241254862
 C         -2.9474736501        2.4336688623       -2.5874593273
 H         -2.2481255101        2.9859959225       -3.2191654570
 H         -3.9519088501        2.6106331828       -2.9783491870
 C         -2.6099450906        0.9506178923       -2.7271498884
 H         -1.5450309606        0.7907455818       -2.5366727986
 H         -2.7965634408        0.6562482230       -3.7627823586
 C         -3.3969485707        0.0095764518       -1.8006980889
 H         -3.4305434110       -0.9748670978       -2.2756643096
 H         -4.4172321406        0.3581045520       -1.6597586985
 H         -4.4925172494        3.5804487908        0.1268485637
 H         -4.8910154799        2.2753243317       -0.9656072771
 H         -4.8193080399        1.2472586102        1.1422221721
 H         -3.4712179096        2.2260631094        1.7007064726
 O         -2.1929412301        0.3343546390        1.7655378711
 C         -1.2786684604       -0.6968723413        1.8801218703
 O         -0.7266253102       -0.7681700922        2.9971308601
 H          1.3741557895       -0.4055281810        0.4508243901
 C          1.6480663292       -1.1748071606       -0.2559577305
 C          1.0300172389       -2.4163305205       -0.1711395213
 C          1.3792438385       -3.3970430700       -1.0882347520
 C          2.3223265184       -3.1283110796       -2.0658682319
 C          2.9448078787       -1.8955812897       -2.1373841812
 C          2.6023045691       -0.9067248302       -1.2210280204
 N          3.1913047195        0.3657808596       -1.2643378096
 S          3.5338170999        1.1806251386        0.1571647609
 O          4.5651516401        2.1260566585       -0.2155935886
 O          3.8678709698        0.2664294277        1.2241515502
 C          2.0520406702        2.0880546787        0.5453130817
 C          1.6219993804        3.0458578094       -0.3522916775
 C          0.4913237606        3.7862037395       -0.0503986368
 C         -0.1903388693        3.5564952589        1.1361928431
 C          0.2531304606        2.5920377782        2.0267990924
 C          1.3880467003        1.8526868181        1.7323554917
 H          1.7550413202        1.0920314975        2.4049062911
 H         -0.2799815493        2.3953384677        2.9437826223
 H         -1.0726340991        4.1317821090        1.3690668636
 H          0.1410911807        4.5374820001       -0.7396947163
 H          2.1821460303        3.1988123399       -1.2596853875
 H          3.9232519994        0.4772084999       -1.9503811297
 H          3.6826411987       -1.6932255593       -2.8989695511
 H          2.5799538681       -3.8939640891       -2.7821136325
 H          0.8980152282       -4.3606585899       -1.0539458626
 C          0.0089578090       -2.5913384510        0.9265709388
 H          0.5129454492       -2.3518562118        1.8787178089
 C         -0.5111887514       -4.0127568710        1.0668963378
 C         -1.8702457614       -4.2797781510        1.6410054179
 C         -1.5943198717       -4.5761624301        0.1990745376
 H         -1.5173016120       -5.6109323899       -0.1021609431
 H         -2.0182350816       -3.9315765494       -0.5532405019
 H         -2.4863025311       -3.4242974110        1.8785691485
 H         -1.9853331215       -5.1054673314        2.3272619173
 H          0.2768566685       -4.6982777214        1.3651481673
 O         -1.4464263912       -1.9179954889       -1.5186654906
