  62
        -98.93727871
 C         -0.6028659327       -1.5353597466       -0.3850499609
 C         -1.7005501061       -1.6271007216        0.5070440435
 C         -2.8215832509       -0.6933933131        0.3005878658
 C         -2.7692635786        0.1609952360       -0.7360873654
 C         -3.7985465499        1.1652562148       -1.1905892434
 C         -5.2647029807        0.7054993079       -1.1748119300
 C         -6.0999673853        1.3731013480       -0.0806039458
 H         -5.8037290395        2.4215894590       -0.0082314285
 H         -7.1498155593        1.3526709123       -0.3814961125
 C         -6.0028299956        0.7239020302        1.2989992884
 H         -6.5200071563        1.3750968514        2.0076905855
 H         -6.5353892641       -0.2295711405        1.2876482974
 C         -4.5808010622        0.4760867111        1.8060928459
 H         -3.9365918448        1.3200075317        1.5644246715
 H         -4.6224979128        0.4063619942        2.8949691226
 C         -3.9574640662       -0.8241312515        1.2779316779
 H         -4.7322865455       -1.4589311039        0.8382451244
 H         -3.5400995296       -1.3984581222        2.1106655017
 H         -5.7053062354        0.9658632007       -2.1386831335
 H         -5.3136401257       -0.3782011578       -1.0819198635
 H         -3.6925962857        2.0730440706       -0.5929741234
 H         -3.5050493157        1.4262050895       -2.2098399829
 O         -1.6861192808        0.2287650654       -1.5596148581
 C         -0.5745234488       -0.5824673629       -1.4022428453
 O          0.3276773524       -0.3498893954       -2.2301996412
 O         -1.7491188938       -2.4722897188        1.4411523493
 C          0.5287582252       -2.5261077603       -0.1694895850
 C          1.6173808368       -1.9288456818        0.6887475366
 C          1.9088206971       -2.4743467523        1.9338400296
 C          2.9024278756       -1.9292788061        2.7267965510
 C          3.6115825919       -0.8227248455        2.2982460104
 C          3.3226401500       -0.2649878600        1.0563872191
 C          2.3371383703       -0.8235941379        0.2546190723
 H          2.1281149614       -0.3888029990       -0.7106654170
 N          4.0215486630        0.8645338429        0.6148276481
 S          3.3736307584        1.9394670481       -0.4788971080
 O          3.4798031133        1.4193555844       -1.8175868940
 O          4.1110466768        3.1640198273       -0.2334584946
 C          1.6679453926        2.2120575231       -0.0280409408
 C          0.7872540875        2.5653689285       -1.0291336923
 C         -0.5210665781        2.8771157371       -0.6960272170
 C         -0.9265976689        2.8184393641        0.6274342419
 C         -0.0333185292        2.4541584501        1.6217951529
 C          1.2804173235        2.1587970232        1.2960355983
 H          1.9906552786        1.8844491900        2.0587362272
 H         -0.3548635382        2.4018975046        2.6496221046
 H         -1.9444318306        3.0617475366        0.8896752226
 H         -1.2158504856        3.1546496157       -1.4724157770
 H          1.1352783523        2.5718121545       -2.0495783190
 H          4.6101802798        1.3156291418        1.2989410785
 H          4.3835487085       -0.3894943078        2.9154285667
 H          3.1214362702       -2.3638091325        3.6900459565
 H          1.3396099243       -3.3230738100        2.2825849437
 H          0.0785016591       -3.3532540164        0.3967182321
 C          1.1065178756       -3.0878936050       -1.4529582350
 C          1.7930175338       -4.4192036792       -1.4157662467
 C          0.4604145830       -4.2810067766       -2.0877473636
 H          0.4146864726       -4.3279122640       -3.1654159499
 H         -0.4046446389       -4.7016827196       -1.5958265731
 H          2.6676049920       -4.5635313799       -2.0313085745
 H          1.8305302841       -4.9373725697       -0.4694665325
 H          1.5104582780       -2.3318200376       -2.1137909164
