  62
        -98.93994317
 C         -2.2560912456       -0.9396492955        0.6488743548
 C         -3.3557565363       -0.7700639584       -0.2278004839
 C         -4.2342059773        0.3756690755        0.0569275338
 C         -3.9561869422        1.1858169626        1.0933316002
 C         -4.7363196500        2.4152602722        1.4573557050
 C         -4.1708471951        3.6622012135        0.7633665261
 C         -3.9462615109        3.4858734960       -0.7385226596
 H         -3.5768628501        4.4382492796       -1.1251592599
 H         -3.1551254089        2.7484673549       -0.8955268391
 C         -5.1966909117        3.0650408911       -1.5233214707
 H         -5.2595396233        3.6692085068       -2.4307433230
 H         -6.0905381288        3.2715439852       -0.9336955176
 C         -5.2060052629        1.5995519112       -1.9615595799
 H         -4.2673505068        1.3629414230       -2.4688432679
 H         -6.0133447758        1.4668115282       -2.6865167786
 C         -5.4215857493        0.5715600389       -0.8440305459
 H         -6.3050844783        0.8402349409       -0.2617470028
 H         -5.6013728498       -0.3986541908       -1.3158611224
 H         -3.2121146848        3.9104071983        1.2251167250
 H         -4.8568483734        4.4935609688        0.9359631737
 H         -4.6746529230        2.5526698957        2.5382211196
 H         -5.7783280696        2.2724089038        1.1775806930
 O         -2.8914724540        0.9933062946        1.9147095481
 C         -2.0228914922       -0.0651279786        1.7147303843
 O         -1.0994714896       -0.1296663536        2.5528568651
 O         -3.6177465657       -1.5272574242       -1.1985486762
 C         -1.2502620917       -2.0713889951        0.4978363694
 C         -0.2716323649       -1.7553545853       -0.6085606432
 C         -0.6177995657       -1.8613455724       -1.9517555943
 C          0.3014137162       -1.5466390571       -2.9357425070
 C          1.5756284644       -1.1221078833       -2.6040967444
 C          1.9325361941       -1.0147058820       -1.2646729559
 C          1.0089851624       -1.3321871337       -0.2788855337
 H          1.2888968167       -1.2257498332        0.7591509824
 N          3.2354126758       -0.6262114616       -0.9052522934
 S          3.4573285630        0.3249236208        0.4722633425
 O          3.3948058477       -0.5212741686        1.6367730318
 O          2.5622406426        1.4606860215        0.4400562550
 C          5.1415708442        0.8513213581        0.2115431645
 C          5.3939792111        2.1053003774       -0.3113322798
 C          6.7078568768        2.4855538324       -0.5370824248
 C          7.7408257457        1.6089476777       -0.2413783282
 C          7.4719327439        0.3534801743        0.2836222431
 C          6.1610033179       -0.0320522242        0.5135785979
 H          5.9033184569       -0.9923193622        0.9287167537
 H          8.2775502707       -0.3244855007        0.5148054063
 H          8.7620570331        1.9072284314       -0.4183897414
 H          6.9199337052        3.4621688814       -0.9414173448
 H          4.5590150106        2.7553618921       -0.5185358923
 H          3.7555748032       -0.2524503435       -1.6881237988
 H          2.2906928590       -0.8763318946       -3.3746879203
 H          0.0198983593       -1.6270850610       -3.9749017186
 H         -1.6192584790       -2.1621771600       -2.2152486337
 H         -0.6849738457       -2.0878823818        1.4401137061
 C         -1.9043280798       -3.4261240975        0.3098603631
 C         -1.1014519283       -4.6592710512        0.5896374746
 C         -2.2114769600       -4.2610458409        1.5145053083
 H         -3.1183165306       -4.8469191668        1.5170897722
 H         -1.9499727151       -3.8570899253        2.4822481914
 H         -1.2438856928       -5.5218443795       -0.0428090025
 H         -0.0856987887       -4.5248395041        0.9310961869
 H         -2.6125665139       -3.4573019305       -0.5067749293
