  62
        -98.93716870
 C          2.6235017484        1.2574646332        0.1817228829
 C          2.6430313851        0.2134184014       -0.7709284234
 C          3.8281541839       -0.6640967721       -0.7580637399
 C          4.8109215598       -0.4375820252        0.1335604822
 C          6.1381244314       -1.1339373041        0.3523181332
 C          6.4163643039       -2.4994596909       -0.2708028404
 C          5.5692787127       -3.6427895182        0.2871810905
 H          5.7805666572       -4.5406982559       -0.2976406211
 H          5.8814802107       -3.8355832771        1.3167141150
 C          4.0616047034       -3.4025099508        0.3011035558
 H          3.5856942886       -4.2906214126        0.7256765860
 H          3.8287743430       -2.5666372012        0.9640895948
 C          3.4267007933       -3.1440316698       -1.0638246386
 H          2.3419140710       -3.1446710435       -0.9268675731
 H          3.6790372531       -3.9575208514       -1.7467971403
 C          3.8061029441       -1.8094594114       -1.7286061604
 H          4.7528132626       -1.8846936774       -2.2580308710
 H          3.0348373661       -1.5695329470       -2.4663355968
 H          6.3213581579       -2.4467932606       -1.3513091666
 H          7.4634437848       -2.7305935907       -0.0566735707
 H          6.9029957853       -0.4318486451        0.0021596833
 H          6.2605807407       -1.2046314550        1.4378299650
 O          4.7506028987        0.5955643834        1.0257879789
 C          3.6663037818        1.4516752384        1.0845397774
 O          3.7464469050        2.3263844884        1.9710386623
 H         -0.9576901015        2.1463258773       -1.1349393229
 C         -0.9514623229        1.4882283986       -0.2802313748
 C          0.1774063853        1.3995839227        0.5169854078
 C          0.1477969412        0.5459450930        1.6172968343
 C         -0.9740381078       -0.2093127235        1.8962668698
 C         -2.0929189155       -0.1337369766        1.0842092595
 C         -2.0799418055        0.7228729646       -0.0068265061
 N         -3.2006997469        0.7969225525       -0.8456320293
 S         -4.7413631638        0.8282852861       -0.1939240255
 O         -5.5666707496        1.4321640206       -1.2171033989
 O         -4.7583976591        1.4670604960        1.1015707075
 C         -5.1804869078       -0.8901579984       -0.0349624697
 C         -5.6885019993       -1.3610342930        1.1598470628
 C         -6.0397727262       -2.6983887127        1.2587016454
 C         -5.8786583586       -3.5365375542        0.1662179359
 C         -5.3696053871       -3.0474437566       -1.0276815055
 C         -5.0180576661       -1.7113227317       -1.1334891181
 H         -4.6199075856       -1.2946872893       -2.0436407597
 H         -5.2448972402       -3.7024624855       -1.8749597862
 H         -6.1512003418       -4.5771284540        0.2453488229
 H         -6.4360560062       -3.0804125211        2.1857901462
 H         -5.7901040637       -0.6744484497        1.9853321210
 H         -3.1041975830        1.4382733146       -1.6186175061
 H         -2.9693726952       -0.7246784643        1.2938578038
 H         -0.9784211101       -0.8686053121        2.7511924799
 H          1.0236651860        0.4824633735        2.2494858561
 C          1.4328964281        2.1963596686        0.2557696974
 H          1.6104078357        2.8444933321        1.1264030025
 C          1.3685133379        3.0588268668       -0.9871177859
 C          0.6991506641        4.3988118759       -0.9396374883
 C          2.1914676262        4.3090503590       -1.0440398886
 H          2.6606978668        4.5756827259       -1.9791582652
 H          2.7833352822        4.5532495876       -0.1738400088
 H          0.1456088752        4.7324199665       -1.8047724813
 H          0.2741730481        4.7123401551        0.0021405065
 H          1.2856775499        2.4748980893       -1.8966775168
 O          1.7188246791        0.0203226798       -1.6030379864
