  62
        -98.93620589
 C         -1.7891574503        0.4053568739       -0.4285036265
 C         -2.6640432781        0.4584111747        0.6835305723
 C         -3.9237079523       -0.2937145196        0.5490528326
 C         -4.1497725884       -1.0130714875       -0.5642477046
 C         -5.4146098557       -1.7597291931       -0.8794002064
 C         -6.5053946688       -0.7730088260       -1.3434234511
 C         -7.7037429969       -0.6660300726       -0.3998711058
 H         -8.2886471751        0.2017744853       -0.7122022246
 H         -8.3336430726       -1.5493970228       -0.5245316834
 C         -7.3728531658       -0.5339441108        1.0899370094
 H         -7.1314871362       -1.5154772882        1.5007518035
 H         -8.2861531239       -0.2040249678        1.5897877937
 C         -6.2396937536        0.4380446813        1.4429971194
 H         -6.1242093029        1.1926394942        0.6646817963
 H         -6.5180219822        0.9650397841        2.3578717825
 C         -4.8791273803       -0.2333356412        1.7086750939
 H         -4.3504643826        0.3393058263        2.4764138334
 H         -5.0390398630       -1.2404416496        2.1034258178
 H         -6.8713242391       -1.0716573655       -2.3269858302
 H         -6.0474247771        0.2109280805       -1.4645853837
 H         -5.1835418204       -2.4713791703       -1.6723897506
 H         -5.7448689117       -2.3113801428       -0.0019655605
 O         -3.2598825210       -1.0833917951       -1.5886864973
 C         -2.0668891899       -0.3848962917       -1.5465179611
 O         -1.3442087104       -0.5440147174       -2.5519365367
 H          1.2117178456       -0.7587149849       -1.2600364798
 C          1.3338435948       -0.5605925268       -0.2027934304
 C          0.5357354112        0.4029794954        0.3998143304
 C          0.6857726953        0.6368169080        1.7613121827
 C          1.6109587702       -0.0833317866        2.4968087325
 C          2.4129926759       -1.0344293307        1.8914764981
 C          2.2693768648       -1.2738669766        0.5313457970
 N          3.1261441451       -2.2034467309       -0.0991118254
 S          4.7525667036       -1.7869434742       -0.0270891818
 O          5.3748855380       -2.4334380947       -1.1604207441
 O          5.2738347642       -2.1397571839        1.2689101734
 C          4.7475677980       -0.0136961258       -0.2244154347
 C          4.8713802904        0.7990215022        0.8842003916
 C          4.7494339675        2.1700657263        0.7256291726
 C          4.5040124162        2.7015350915       -0.5307671573
 C          4.3901954737        1.8722108396       -1.6362473434
 C          4.5066757306        0.5003001223       -1.4831117850
 H          4.4241765373       -0.1756559148       -2.3195629461
 H          4.2021989623        2.2883261735       -2.6133106799
 H          4.4010447728        3.7686631535       -0.6506884734
 H          4.8377803914        2.8179047383        1.5825595525
 H          5.0617651283        0.3459398841        1.8429126513
 H          2.8649936692       -2.3902255155       -1.0572847885
 H          3.1528095404       -1.5902564396        2.4449324086
 H          1.7129236662        0.1024615998        3.5550768095
 H          0.0570246961        1.3665499208        2.2440923914
 C         -0.4621828793        1.1486958938       -0.4521215209
 H         -0.1137302303        1.0915856903       -1.4920583774
 C         -0.5862581527        2.6086294315       -0.0676314475
 C          0.5830457675        3.5128821617       -0.3142379427
 C         -0.6556679623        3.6444821532       -1.1471126826
 H         -1.2918544312        4.5036331621       -0.9952820123
 H         -0.6225990225        3.3036411326       -2.1719221801
 H          1.4598099800        3.0757236774       -0.7687541222
 H          0.7990979644        4.2831693819        0.4095106940
 H         -1.1802705865        2.7762860600        0.8205479747
 O         -2.4261697837        1.1011295291        1.7384638848
