  62
        -98.94093759
 C          2.3084117923        0.8294057669       -0.1473240525
 C          3.5922125999        1.2179856198        0.3051088234
 C          4.7223862819        0.4816739925       -0.2710032156
 C          4.4955803444       -0.4791764666       -1.1853592246
 C          5.5456129450       -1.3017162628       -1.8822041256
 C          6.0196927979       -2.5208047549       -1.0788848616
 C          6.9068564931       -2.2019488167        0.1252299816
 H          7.7293628874       -1.5599085015       -0.1912499069
 H          7.3406117892       -3.1455581511        0.4620186650
 C          6.1666098074       -1.5512082202        1.3020879643
 H          6.4592149185       -2.0419886777        2.2330479877
 H          5.0911641362       -1.7040148330        1.1843611206
 C          6.4384449760       -0.0565554558        1.4724693936
 H          7.4905289364        0.0986884102        1.7210941753
 H          5.8371361395        0.3085421558        2.3089659795
 C          6.0976568005        0.7906711805        0.2394761064
 H          6.8389694749        0.6319656339       -0.5431696553
 H          6.1143775586        1.8435349638        0.5311962674
 H          6.5853955677       -3.1596619154       -1.7610147322
 H          5.1429644374       -3.0825158803       -0.7480520687
 H          6.4006833615       -0.6715922094       -2.1284560467
 H          5.0949078079       -1.6561477569       -2.8116914423
 O          3.2455003740       -0.8099554744       -1.6085925934
 C          2.1222234335       -0.1818072005       -1.0892052797
 O          1.0416459200       -0.6056637081       -1.5443154609
 O          3.7826209378        2.1326735555        1.1505642225
 C          1.0884059326        1.5386446765        0.4105472536
 C          0.1473721627        0.5399772399        1.0368266843
 C          0.6524649637       -0.3653458558        1.9671840791
 C         -0.1692137916       -1.3078366110        2.5525526162
 C         -1.5112747034       -1.3691793354        2.2203074637
 C         -2.0302571257       -0.4603081618        1.3064751842
 C         -1.2032107693        0.4947089661        0.7299885118
 H         -1.6265029727        1.1832536892        0.0197376718
 N         -3.4059142537       -0.4738415467        1.0027049417
 S         -3.9445800059       -0.3031203093       -0.5885175851
 O         -3.5071362445       -1.4247628992       -1.3915401364
 O         -3.6095141163        1.0102474035       -1.0734952053
 C         -5.7037045342       -0.4026648612       -0.3078307043
 C         -6.3851715953       -1.5674918826       -0.6035980527
 C         -7.7476697388       -1.6290228018       -0.3548873155
 C         -8.4008848994       -0.5318121190        0.1853792270
 C         -7.7032187310        0.6312507255        0.4766817585
 C         -6.3416994780        0.6995125905        0.2290569303
 H         -5.7600884231        1.5836359060        0.4310708112
 H         -8.2149339094        1.4831560115        0.8946127647
 H         -9.4608855072       -0.5821326600        0.3781867458
 H         -8.2930260596       -2.5305483673       -0.5834069546
 H         -5.8370750990       -2.3925401683       -1.0296725278
 H         -3.8677187589       -1.2759949688        1.4129163503
 H         -2.1517971580       -2.1144419291        2.6678239633
 H          0.2381513603       -2.0078826446        3.2667534894
 H          1.7043270842       -0.3241888848        2.2168968084
 H          1.4709342520        2.1982987170        1.2042150059
 C          0.4422097733        2.3928184764       -0.6593783386
 C         -0.3248649223        3.6235220079       -0.2817852477
 C          1.0097350108        3.7482547223       -0.9514284568
 H          1.0457137475        4.0813635827       -1.9778359213
 H          1.8530388551        4.0688506013       -0.3572430311
 H         -1.2121090286        3.8661282613       -0.8472298412
 H         -0.3895691615        3.8676127325        0.7677718722
 H          0.0846317660        1.8080823872       -1.5010261923
