  62
        -98.95136567
 C         -1.8260856585       -1.2495906968       -0.2885898883
 C         -2.9142638605       -0.5622171941        0.2961337679
 C         -3.2230790946        0.7504323423       -0.2793914991
 C         -2.4941560424        1.2160178201       -1.3102759758
 C         -2.6724785643        2.5457440439       -1.9902782662
 C         -1.9545336473        3.6936455683       -1.2667514176
 C         -2.6286719725        4.1670481429        0.0217427448
 H         -2.1680141235        5.1192890850        0.2925436575
 H         -3.6866085029        4.3561692367       -0.1665190013
 C         -2.4754302783        3.1975685107        1.2021252583
 H         -1.6496333484        2.5102189763        0.9998593519
 H         -2.2007145561        3.7587468577        2.0991103510
 C         -3.7353832039        2.3984668162        1.5381929188
 H         -4.5164420368        3.0786132190        1.8868358281
 H         -3.4956017831        1.7136561611        2.3559638936
 C         -4.2947193562        1.5694887311        0.3747039648
 H         -5.0423994205        0.8801115615        0.7755229495
 H         -4.7746252534        2.2215301362       -0.3547333099
 H         -0.9327631074        3.3773182916       -1.0398212884
 H         -1.9012688948        4.5378907293       -1.9585320051
 H         -2.2442112660        2.4455596161       -2.9899045621
 H         -3.7338541384        2.7768692494       -2.0860508153
 O         -1.4876798894        0.5028415940       -1.8770565898
 C         -1.0956380399       -0.7149291417       -1.3490426527
 O         -0.1084092401       -1.2268168100       -1.9139496352
 H         -0.2278859494       -0.4284572591        1.4640559868
 C          0.4860093466       -1.2268567901        1.3224971280
 C          0.0801493075       -2.4268359727        0.7523331259
 C          1.0224515509       -3.4368650023        0.6028153015
 C          2.3379346909       -3.2334825702        0.9843796036
 C          2.7482500043       -2.0148948418        1.4937277855
 C          1.8100508125       -1.0028965327        1.6575855967
 N          2.1684423718        0.2790514806        2.1302720710
 S          2.0342934985        1.5216974331        1.0073502314
 O          2.5156073243        2.7027513140        1.6924410045
 O          0.6907170604        1.5843519348        0.4970160822
 C          3.1970212757        1.0640965032       -0.2656467993
 C          4.4786667579        1.5771458091       -0.1940126374
 C          5.4209803651        1.1647816077       -1.1213488215
 C          5.0700329541        0.2399102282       -2.0937728443
 C          3.7813802570       -0.2673393903       -2.1489012445
 C          2.8299155887        0.1439727381       -1.2268291326
 H          1.8198627609       -0.2357703380       -1.2593332242
 H          3.4998422072       -0.9859526066       -2.9018477673
 H          5.8036532189       -0.0870763835       -2.8137294742
 H          6.4228085999        1.5611157689       -1.0814264235
 H          4.7026413144        2.2952889311        0.5784640258
 H          3.0917407591        0.3148822239        2.5417800408
 H          3.7809257440       -1.8441377266        1.7586154063
 H          3.0580819242       -4.0276785766        0.8605243094
 H          0.7277618988       -4.3825250007        0.1778726223
 C         -1.3600540423       -2.5596664919        0.3192985786
 H         -1.9835074251       -2.7086549106        1.2140272861
 C         -1.5942646257       -3.7111256856       -0.6366780425
 C         -1.9002289391       -5.0824834363       -0.1143826197
 C         -2.9779213626       -4.2713338187       -0.7665102000
 H         -3.3263603183       -4.5631498413       -1.7457892158
 H         -3.7457688260       -3.8392028198       -0.1414404223
 H         -1.5114132877       -5.9364623118       -0.6483271835
 H         -1.9444834724       -5.2120483184        0.9564384240
 H         -1.0021166386       -3.6247458696       -1.5408752125
 O         -3.5868455385       -1.0202285225        1.2607059464
