  62
        -98.93656470
 C         -2.5040938699       -1.2710818113        0.2047861905
 C         -2.6491844804       -0.3765395309       -0.8826083891
 C         -3.5226484206        0.7823906888       -0.6458498283
 C         -4.1292303303        0.9290909182        0.5457878520
 C         -5.0938322904        2.0174612278        0.9373391028
 C         -4.5212579307        3.4468330979        1.0001495933
 C         -4.7040505813        4.2585305784       -0.2883084063
 H         -5.5534991114        3.8541696585       -0.8400320862
 H         -4.9635586114        5.2850466582       -0.0216209558
 C         -3.4830229616        4.3317511691       -1.2102172567
 H         -3.8176225820        4.7113706695       -2.1779422664
 H         -2.7711944516        5.0531684291       -0.8024788966
 C         -2.7302634514        3.0187735194       -1.4274967975
 H         -2.0199246317        3.1632226699       -2.2437794077
 H         -2.1352723310        2.7848252691       -0.5410344978
 C         -3.6286444012        1.8058313493       -1.7386531878
 H         -4.6631240913        2.1172786591       -1.8748363073
 H         -3.2902797214        1.3179000698       -2.6548046281
 H         -5.0480592905        3.9624775674        1.8047287537
 H         -3.4685934806        3.4055973980        1.2795407129
 H         -5.9416764706        1.9973751279        0.2489371131
 H         -5.4610069100        1.7374405572        1.9268842728
 O         -3.9584452997        0.0440106077        1.5674824915
 C         -3.1328687495       -1.0600589520        1.4304317008
 O         -3.0400568390       -1.7646917524        2.4574733404
 O         -2.0843657608       -0.5366492802       -1.9948250193
 C         -1.6143674297       -2.4916459310        0.0625165296
 C         -0.2056791999       -2.0800175006       -0.2948166107
 C          0.5695205500       -2.7570306700       -1.2271201812
 C          1.8625883998       -2.3429631696       -1.4970603415
 C          2.4098104298       -1.2510828797       -0.8495490112
 C          1.6488390999       -0.5744192803        0.0948528694
 C          0.3580140801       -0.9980610807        0.3701960096
 H         -0.2314148098       -0.4720272912        1.1126590901
 N          2.1908383599        0.5450455795        0.7519845897
 S          3.6879960802        0.3765302095        1.4957693392
 O          3.9138284906       -0.9843024506        1.9251720185
 O          3.7114993203        1.3892449090        2.5288647296
 C          4.8515582397        0.8175103803        0.2226155990
 C          4.7318076392        2.0610576006       -0.3662443004
 C          5.6318101388        2.4215884212       -1.3562372306
 C          6.6319012188        1.5388382216       -1.7363833213
 C          6.7412917293        0.2957076614       -1.1323127619
 C          5.8436355097       -0.0716035993       -0.1417736418
 H          5.8861236701       -1.0291292595        0.3523906278
 H          7.5198737694       -0.3886356683       -1.4287339925
 H          7.3301335385        1.8218958121       -2.5081404114
 H          5.5499251984        3.3875175214       -1.8280580701
 H          3.9428921691        2.7180819902       -0.0398472599
 H          1.5399254600        1.0013462091        1.3745869201
 H          3.4124295396       -0.9200555094       -1.0649550913
 H          2.4511089797       -2.8758025191       -2.2281081819
 H          0.1599996100       -3.6081379098       -1.7457220715
 H         -1.5851815992       -2.9655856515        1.0554580694
 C         -2.2253008598       -3.4658484407       -0.9241908206
 C         -2.0111267694       -4.9404557908       -0.7668121213
 C         -3.3517825394       -4.3418394112       -0.4678277406
 H         -4.1676229496       -4.5310139611       -1.1491271604
 H         -3.6573741391       -4.2561953717        0.5652158695
 H         -1.9096653795       -5.5447710303       -1.6556534517
 H         -1.4092951290       -5.2732568410        0.0655024083
 H         -2.2824137202       -3.0580160603       -1.9267651504
