  62
        -98.94267112
 C         -2.7138546612       -1.2125598065        0.1673636800
 C         -2.6114848137       -0.3093947822       -0.9184836544
 C         -3.6114141325        0.7685466141       -0.9495280666
 C         -4.5558431606        0.8239360198        0.0066213511
 C         -5.5862901577        1.9073650827        0.1333249081
 C         -5.0811441013        3.0464147982        1.0305704671
 C         -3.6805868133        3.5432527176        0.6711609747
 H         -3.4433743096        4.3642595008        1.3512084534
 H         -2.9578377988        2.7471796851        0.8655009851
 C         -3.5289006493        4.0214790745       -0.7796826989
 H         -4.5115929256        4.2217203053       -1.2082601357
 H         -2.9763184299        4.9633108149       -0.7815890207
 C         -2.7666849582        3.0563102725       -1.6895700137
 H         -1.8196399035        2.7790537376       -1.2192944513
 H         -2.5301330799        3.5806868417       -2.6192350322
 C         -3.5107514434        1.7689898614       -2.0663512128
 H         -4.5005705763        2.0148585510       -2.4559190715
 H         -2.9411316590        1.2761114858       -2.8596064039
 H         -5.7898210026        3.8742811533        0.9689134032
 H         -5.0628888244        2.6908168274        2.0634045684
 H         -5.8289505617        2.2898879687       -0.8560670521
 H         -6.4855787669        1.4779184521        0.5778791476
 O         -4.6448231866       -0.0842549654        1.0118976144
 C         -3.7170350773       -1.1040001904        1.1327168163
 O         -3.8914323571       -1.8423121699        2.1230677731
 H          0.4978541354       -1.9268005989       -1.2701845860
 C          0.6390798694       -1.5394802174       -0.2738227042
 C         -0.3651952318       -1.6790547839        0.6696819898
 C         -0.1604642737       -1.1562097809        1.9443700277
 C          1.0171225943       -0.5063419562        2.2593671476
 C          2.0109407032       -0.3506156270        1.3077294288
 C          1.8172799725       -0.8682437965        0.0347440398
 N          2.7971364527       -0.6853108177       -0.9491515063
 S          4.4218945082       -0.7989751740       -0.5801117244
 O          5.0755492295       -1.0599206716       -1.8438652619
 O          4.6645482992       -1.7560592992        0.4745515831
 C          4.8544618575        0.8387833751       -0.0298439145
 C          4.4740612234        1.9122109231       -0.8111271228
 C          4.8143401197        3.1916328527       -0.4020239350
 C          5.5286021541        3.3753766468        0.7726121032
 C          5.9067369008        2.2872702824        1.5439374445
 C          5.5681524464        1.0048305451        1.1408086206
 H          5.8348624224        0.1303417895        1.7128611406
 H          6.4618029545        2.4322026076        2.4568291003
 H          5.7912322120        4.3726382814        1.0886326720
 H          4.5204573675        4.0400800297       -0.9989356276
 H          3.9193686505        1.7297437846       -1.7165599470
 H          2.5725866026       -1.0861358389       -1.8469393565
 H          2.9291427513        0.1608823631        1.5456890054
 H          1.1627909529       -0.1094061065        3.2526429409
 H         -0.9450282335       -1.2615943693        2.6814907553
 C         -1.6935037891       -2.3243377970        0.3561414287
 H         -2.0173583754       -2.8840476643        1.2438953489
 C         -1.6624254406       -3.2675174300       -0.8274103038
 C         -1.0010174782       -4.6043533150       -0.6836654688
 C         -2.4931144421       -4.5132350570       -0.7897008193
 H         -2.9668552214       -4.8440945769       -1.7018012212
 H         -3.0818017910       -4.6944766302        0.0977996346
 H         -0.4491471766       -5.0020134321       -1.5219526173
 H         -0.5740745478       -4.8479662006        0.2776677803
 H         -1.5802318156       -2.7587115557       -1.7798245761
 O         -1.7363906938       -0.3885446070       -1.8197893761
