  62
        -98.93846414
 C         -2.0804144907       -1.6673409588       -0.2484223725
 C         -2.4309112842       -0.6883945703       -1.2123208527
 C         -3.6045511864        0.1361477205       -0.8750867232
 C         -4.3134386229       -0.1103626792        0.2393500161
 C         -5.5326068961        0.6401101014        0.7021622058
 C         -5.2103404923        1.9136112417        1.4959983094
 C         -4.6568939240        3.0741298042        0.6677148203
 H         -5.3185041220        3.2642340014       -0.1779590335
 H         -4.6776297369        3.9611793758        1.3038582234
 C         -3.2220032403        2.8651413336        0.1620311476
 H         -2.6339414227        3.7687220390        0.3399601652
 H         -2.7457441942        2.0622593278        0.7305027101
 C         -3.1156319316        2.5447714914       -1.3294421260
 H         -3.4605458481        3.4011927078       -1.9136133765
 H         -2.0607244856        2.3798673592       -1.5691343594
 C         -3.9053196039        1.3031238541       -1.7661030879
 H         -3.5941997050        1.0385475817       -2.7797319993
 H         -4.9735432533        1.5185196675       -1.7707685967
 H         -6.1360921177        2.2448103340        1.9720519986
 H         -4.5004686094        1.6612611648        2.2871808258
 H         -6.1572464386        0.8915313930       -0.1551973150
 H         -6.0883587814       -0.0393297201        1.3518762657
 O         -3.9955868295       -1.1196189198        1.0937641724
 C         -2.8519058184       -1.8752784574        0.8989618426
 O         -2.6363039896       -2.7130339062        1.7983861009
 O         -1.8287965348       -0.4918073920       -2.2969283779
 C         -0.8198194590       -2.5157903815       -0.3097094103
 C          0.2401760822       -1.8906022282        0.5641249276
 C          0.9626072985       -2.6652321450        1.4651911517
 C          1.9103713879       -2.0900645204        2.2925575826
 C          2.1666703736       -0.7327386107        2.2232182689
 C          1.4530854095        0.0508037089        1.3237410595
 C          0.4929221236       -0.5264661783        0.5054629010
 H         -0.0575170320        0.0996685633       -0.1811589827
 N          1.6952098899        1.4386953376        1.2169170667
 S          2.4495503634        1.9435545414       -0.1927618739
 O          2.6699237850        3.3626577625       -0.0263627193
 O          1.6746679858        1.5315985850       -1.3317383103
 C          4.0154402610        1.0866745023       -0.1652415435
 C          4.0644122487       -0.2274406989       -0.5864006634
 C          5.2634080985       -0.9163008046       -0.4916403247
 C          6.3854102517       -0.2838531556        0.0218468572
 C          6.3203500900        1.0368004253        0.4398828818
 C          5.1233625172        1.7293718776        0.3519297509
 H          5.0260402158        2.7577205047        0.6607137627
 H          7.1952433906        1.5271816105        0.8353725521
 H          7.3162075073       -0.8238163536        0.0942672314
 H          5.3133781026       -1.9425391523       -0.8179987269
 H          3.1742193567       -0.6851580269       -0.9868569292
 H          2.1964224510        1.8197082499        2.0083896278
 H          2.9045217012       -0.2773617277        2.8667636714
 H          2.4547640634       -2.7027294911        2.9943177311
 H          0.7577145104       -3.7236296663        1.5288185345
 H         -1.0886565736       -3.4808914083        0.1506536799
 C         -0.3218354238       -2.8185011453       -1.7136955821
 C          0.7297300218       -2.0133604489       -2.4081859764
 C          1.0514555977       -3.3903911167       -1.9158784759
 H          1.1791232672       -4.1785964735       -2.6422427144
 H          1.6870303430       -3.4791000438       -1.0474826855
 H          0.6091400270       -1.8504253394       -3.4684252740
 H          1.1362397214       -1.1530543877       -1.8989595456
 H         -1.1147997376       -3.2106784837       -2.3420946592
