  62
        -98.94433056
 C          2.0320322722        1.3867686591        0.0406568378
 C          2.3244750899        0.4326453027       -0.9637918535
 C          3.6788397857       -0.1406380735       -0.9337669813
 C          4.5512285317        0.2573404131        0.0089216621
 C          5.9347379372       -0.2942860843        0.1902441222
 C          5.9357389482       -1.4793265189        1.1662484005
 C          4.8712732001       -2.5334128287        0.8609382895
 H          4.9872061659       -3.3344753944        1.5942995691
 H          3.8814335681       -2.0978525275        1.0174156795
 C          4.9478373848       -3.1221056534       -0.5547741346
 H          5.9303471847       -2.9252383575       -0.9853237130
 H          4.8339806967       -4.2062875491       -0.4894034241
 C          3.8655466526       -2.6180631545       -1.5112721828
 H          2.8837467197       -2.7301877749       -1.0435046360
 H          3.8773059314       -3.2523861038       -2.4018295808
 C          4.0149250174       -1.1653620148       -1.9808779795
 H          5.0232805209       -1.0056991001       -2.3675281707
 H          3.3046613220       -1.0060477814       -2.7973788231
 H          6.9241228524       -1.9420131417        1.1465608099
 H          5.7589440817       -1.0978979971        2.1745870281
 H          6.3267839913       -0.6055247819       -0.7760361591
 H          6.5702754192        0.4963718677        0.5925666141
 O          4.2445591394        1.1879425291        0.9468573078
 C          2.9879447011        1.7638423245        0.9913641174
 O          2.8429532419        2.5968977469        1.9078967316
 H         -0.2798185606       -0.2963454448       -0.6958811900
 C         -0.7248286402       -0.0069049333        0.2444554409
 C         -0.3310262188        1.1806088439        0.8449046343
 C         -0.9085201245        1.5348320596        2.0583206895
 C         -1.8515110847        0.7167390828        2.6568140034
 C         -2.2371507674       -0.4689920290        2.0582128367
 C         -1.6623545868       -0.8323349633        0.8469128370
 N         -2.0545665474       -2.0323603024        0.2237649501
 S         -3.7024443167       -2.2526462322        0.0188460820
 O         -4.2768436765       -2.7481399725        1.2451904766
 O         -3.8395108084       -3.1142225178       -1.1342488475
 C         -4.3351242461       -0.6211232865       -0.3295363853
 C         -3.8852096090        0.0183660580       -1.4678022434
 C         -4.3203157839        1.3070910513       -1.7281552708
 C         -5.1909600570        1.9327913019       -0.8490310075
 C         -5.6365402894        1.2757115915        0.2870194140
 C         -5.2034446461       -0.0133689177        0.5537020464
 H         -5.5209926461       -0.5591405108        1.4270831287
 H         -6.3150599847        1.7641160897        0.9676261651
 H         -5.5234221949        2.9384448282       -1.0524273157
 H         -3.9749444086        1.8184983926       -2.6123305191
 H         -3.2101632130       -0.4959687432       -2.1332575513
 H         -1.5583007120       -2.2116785239       -0.6374922632
 H         -2.9674073720       -1.1210596262        2.5097284373
 H         -2.2898631641        1.0044473090        3.6001052767
 H         -0.6034469059        2.4530104074        2.5387585659
 C          0.6830590911        2.0779493292        0.1760864545
 H          0.8584024746        2.9353610171        0.8389540330
 C          0.1449551046        2.5966104685       -1.1446593518
 C         -0.8946248306        3.6746699743       -1.1303363359
 C          0.4993602657        3.9828876726       -1.5868479346
 H          0.6746847983        4.1590578948       -2.6375941989
 H          1.1331641605        4.5682438681       -0.9363108469
 H         -1.6808487905        3.6407924803       -1.8682607944
 H         -1.2088608710        4.0538107666       -0.1699261648
 H          0.0731652135        1.8347935868       -1.9090886549
 O          1.5140414644        0.0556275473       -1.8538185761
