  62
        -98.93341041
 C         -2.5322719038       -1.0161195990        0.1330759371
 C         -2.7417468204        0.3260807399       -0.2549151099
 C         -4.0892774188        0.8832201951       -0.0165510383
 C         -5.0217386420        0.1022293936        0.5602778735
 C         -6.4580776634        0.4353396690        0.8653390994
 C         -7.3501091253        0.4140254813       -0.3865180477
 C         -6.7493704415        1.0913305290       -1.6154493746
 H         -5.7973115519        0.6154706814       -1.8572125036
 H         -7.4244966750        0.9118323307       -2.4563520992
 C         -6.5465502586        2.5996689993       -1.4934083316
 H         -6.1977126420        2.9595450567       -2.4647136254
 H         -7.5085592784        3.0751943550       -1.2896117175
 C         -5.5445139589        3.0566215026       -0.4310397909
 H         -5.3242976214        4.1107979180       -0.6235339192
 H         -5.9787661687        3.0101946113        0.5640317374
 C         -4.2074863713        2.3223297809       -0.4574076704
 H         -3.7972638459        2.3606990838       -1.4729716752
 H         -3.4917140056        2.8774394196        0.1613407646
 H         -8.3035727419        0.8832281251       -0.1382445802
 H         -7.5444956687       -0.6300001876       -0.6440445047
 H         -6.8157114276       -0.3281829058        1.5597768912
 H         -6.5194963385        1.3951626155        1.3695268943
 O         -4.7680983046       -1.1876678848        0.9267292186
 C         -3.5355384339       -1.7767303844        0.7303609283
 O         -3.4542318710       -2.9579637715        1.1263817115
 H          1.2846247091       -0.7919172552       -0.9713027048
 C          1.0918082304       -0.5266542273        0.0565595805
 C         -0.1085008508       -0.8844331388        0.6487619090
 C         -0.3202633699       -0.5385088344        1.9809036619
 C          0.6333773241        0.1661836916        2.6893396034
 C          1.8224133998        0.5401790033        2.0880345273
 C          2.0505167671        0.1890698645        0.7653250870
 N          3.2515142604        0.5727517074        0.1427031125
 S          4.6771954054        0.3984352794        1.0322490394
 O          4.6958713265       -0.8900218943        1.6882788259
 O          4.8254297357        1.5448545409        1.8934187729
 C          5.8968309675        0.4540686735       -0.2660475333
 C          6.3470887130       -0.7304385464       -0.8180209572
 C          7.2768205627       -0.6806029885       -1.8446515870
 C          7.7357858184        0.5459449816       -2.3010481357
 C          7.2744043060        1.7261104272       -1.7370172764
 C          6.3454635416        1.6836419677       -0.7094893615
 H          5.9657848718        2.5735405728       -0.2352796583
 H          7.6358388141        2.6772829031       -2.0931558951
 H          8.4600140055        0.5818635191       -3.0994874929
 H          7.6397221134       -1.5962493150       -2.2831322671
 H          5.9708611859       -1.6614493345       -0.4250080159
 H          3.3459856198        0.1769407463       -0.7827082479
 H          2.5758440766        1.0902386215        2.6286498803
 H          0.4510908309        0.4292292407        3.7209093692
 H         -1.2489814905       -0.8291939393        2.4541810239
 C         -1.1771959026       -1.6653051971       -0.0782083547
 H         -1.2427939806       -2.6598861339        0.3875930848
 C         -0.9093762357       -1.8377295710       -1.5589952180
 C         -0.0384548689       -2.9562386300       -2.0451469307
 C         -1.5191056369       -3.0065202491       -2.2705329934
 H         -1.8949321806       -2.8619257719       -3.2722815018
 H         -2.1065161883       -3.6940583327       -1.6792659332
 H          0.6004407294       -2.7811226897       -2.8978091994
 H          0.3835013525       -3.6190981676       -1.3046747377
 H         -0.8767102709       -0.8916869511       -2.0872671589
 O         -1.8489289898        1.0376029684       -0.7862303142
