  62
        -98.93488559
 C          0.8109630636        1.5590018682        0.7329924539
 C          1.5368946883        1.2608703289       -0.4475787934
 C          2.5196540908        0.1666823583       -0.3346343946
 C          2.6740707511       -0.4873464759        0.8288616320
 C          3.5726143800       -1.6669097337        1.0929794266
 C          5.0878172067       -1.4124807616        0.9783922126
 C          5.6820074020       -1.7366013902       -0.3977793347
 H          6.6535825641       -2.2147809683       -0.2574088369
 H          5.0417838237       -2.4675314365       -0.8935966658
 C          5.9038101723       -0.5398290888       -1.3275980920
 H          6.8042469375       -0.0063151874       -1.0145219321
 H          6.0835679345       -0.9263562244       -2.3331755303
 C          4.7655831054        0.4791931947       -1.3861784997
 H          4.9581140081        1.1591458321       -2.2185253923
 H          4.7731482612        1.0903910567       -0.4803652095
 C          3.3599041392       -0.1333036240       -1.5409677409
 H          2.8470730636        0.3117215002       -2.3965877123
 H          3.4201568607       -1.2084066512       -1.7070688032
 H          5.5718626604       -2.0540759548        1.7163650975
 H          5.3054969336       -0.3810101925        1.2541219985
 H          3.2884981616       -2.4788094541        0.4189122908
 H          3.3431595622       -1.9841739679        2.1123119155
 O          1.9603144922       -0.1645889904        1.9427805387
 C          1.0213561888        0.8538119146        1.9204700062
 O          0.4449205019        1.0366394380        3.0108818524
 O          1.3917090785        1.8549417221       -1.5452526494
 C         -0.2825955151        2.6115553369        0.8090326134
 C         -1.6306325479        1.9841185207        0.5533987236
 C         -2.7270793489        2.3086597192        1.3442203051
 C         -3.9629021809        1.7351608862        1.1048091375
 C         -4.1227674391        0.8116870614        0.0876610341
 C         -3.0309481332        0.4721130594       -0.7029315552
 C         -1.7981478479        1.0663794458       -0.4744787249
 H         -0.9658012349        0.8050366758       -1.1097239604
 N         -3.1563468287       -0.4768993800       -1.7341930214
 S         -2.0493146355       -1.7325377191       -1.7894839908
 O         -0.7779638964       -1.2685217578       -2.2775714251
 O         -2.7038953216       -2.7511762118       -2.5824969527
 C         -1.9141413210       -2.2722864558       -0.0959574311
 C         -2.9365929721       -3.0339538842        0.4359412056
 C         -2.8752119117       -3.3981068782        1.7708326030
 C         -1.8033902363       -2.9875081344        2.5495772112
 C         -0.7833683125       -2.2263818613        2.0003204754
 C         -0.8377294731       -1.8641966829        0.6636899790
 H         -0.0622565259       -1.2721737706        0.2019310547
 H          0.0458991512       -1.8944087117        2.6053629842
 H         -1.7582688541       -3.2612080974        3.5918141447
 H         -3.6627141534       -3.9946240474        2.2023352716
 H         -3.7470119162       -3.3395440594       -0.2058085156
 H         -4.0940263550       -0.8359589978       -1.8485057659
 H         -5.0830388029        0.3541540106       -0.0946903818
 H         -4.8067347024        1.9992466046        1.7233525668
 H         -2.6013086913        3.0062492021        2.1589512739
 H         -0.2800556853        2.9616852325        1.8541920770
 C         -0.0259631177        3.8253699459       -0.0725319623
 C         -0.7615612695        4.0833854935       -1.3492709970
 C         -1.0365595433        4.9317870396       -0.1463265135
 H         -0.6841903546        5.9521049306       -0.1411747961
 H         -1.9774523214        4.7847646990        0.3616129872
 H         -0.2023814494        4.5023997242       -2.1717912070
 H         -1.5097034122        3.3695466038       -1.6579632830
 H          1.0177687413        4.1214622402       -0.0541842599
