  62
        -98.93994754
 C         -2.7722272144       -0.0602509825        0.4230102346
 C         -2.8253597081       -1.0220890990       -0.6202016487
 C         -2.2844622930       -2.3488278972       -0.3185858651
 C         -1.7971979187       -2.6000553579        0.9094849763
 C         -1.1480183596       -3.8797795485        1.3603075364
 C          0.3384016686       -3.9623944462        0.9833953418
 C          0.6180992520       -4.2496203432       -0.4929806272
 H          1.6684083746       -4.5383975173       -0.5677080248
 H          0.0206168791       -5.1022594645       -0.8187972119
 C          0.3699394834       -3.0537493442       -1.4233423024
 H          0.3510352076       -2.1349369799       -0.8318445818
 H          1.2015523722       -2.9621028984       -2.1267170052
 C         -0.9090044195       -3.1471540651       -2.2563368567
 H         -0.8235594796       -3.9739564545       -2.9658413547
 H         -1.0124817436       -2.2201513772       -2.8264682039
 C         -2.1914790656       -3.3415038792       -1.4378656998
 H         -3.0462718097       -3.1760289086       -2.0986731436
 H         -2.2407762785       -4.3579572764       -1.0479007968
 H          0.7841217667       -4.7611583767        1.5813321247
 H          0.8191566043       -3.0212958829        1.2638375628
 H         -1.6831672111       -4.7353704435        0.9467871436
 H         -1.2320695107       -3.9069143874        2.4488859550
 O         -1.8512569895       -1.6868478538        1.9117138464
 C         -2.2792918224       -0.3804377735        1.6886471252
 O         -2.1926155454        0.3423265935        2.6996042784
 O         -3.2950064842       -0.7677096365       -1.7626937871
 C         -3.1115798406        1.3608153267        0.0040448627
 C         -1.9659626709        1.8824055323       -0.8332249093
 C         -2.1763025909        2.6575947736       -1.9662711123
 C         -1.1023937348        3.0920160658       -2.7248516877
 C          0.1918381728        2.7426291774       -2.3860075217
 C          0.4115069996        1.9476254782       -1.2644639177
 C         -0.6636274127        1.5531640270       -0.4855026643
 H         -0.4836631563        0.9600009902        0.3981032873
 N          1.7026500316        1.4971332199       -0.9501410520
 S          2.0592421164        0.8137117990        0.5458276212
 O          1.3677420314       -0.4428402186        0.6710642222
 O          1.8549289469        1.7843370433        1.5996002026
 C          3.8009041915        0.5126031609        0.3211285810
 C          4.7203583505        1.4383704012        0.7762861246
 C          6.0701111201        1.2004114033        0.5687915829
 C          6.4746803208        0.0480183694       -0.0880458261
 C          5.5400880423       -0.8734512088       -0.5369502444
 C          4.1893479494       -0.6416068402       -0.3320630856
 H          3.4258103818       -1.3314044372       -0.6531262862
 H          5.8580531871       -1.7702974105       -1.0435894365
 H          7.5254279484       -0.1350477665       -0.2480697793
 H          6.7991220713        1.9124258644        0.9206220501
 H          4.3595258633        2.3138530943        1.2918992388
 H          2.4438381847        2.0903833895       -1.2940173188
 H          1.0253962487        3.0635085057       -2.9911897784
 H         -1.2765803183        3.6998143079       -3.5997609996
 H         -3.1856880226        2.9020490648       -2.2626389553
 H         -3.9892081124        1.2807984304       -0.6587968644
 C         -3.4789767617        2.2967363867        1.1418805891
 C         -2.5012347697        3.2536934916        1.7480659847
 C         -3.6242596562        3.7707513393        0.9025825388
 H         -4.4357597720        4.2905752635        1.3885836695
 H         -3.3762345747        4.1492161796       -0.0770618677
 H         -2.5366383349        3.3941367680        2.8174688452
 H         -1.4979522878        3.2740938302        1.3486062371
 H         -4.1866420591        1.8414300791        1.8262363756
