  62
        -98.94640229
 C         -1.2165033255       -1.2319492344        0.0383523758
 C         -1.6585355546       -0.3611834821        1.0643370005
 C         -2.4739647983        0.7786979770        0.6339400916
 C         -2.7041763792        0.9741845119       -0.6769437636
 C         -3.5237816388        2.0849945559       -1.2764475080
 C         -5.0346767812        1.8120585622       -1.2792842228
 C         -5.7194318911        1.9011757896        0.0851569325
 H         -5.4621334017        2.8485972332        0.5598488771
 H         -6.7958129192        1.9117152854       -0.0976974091
 C         -5.3936030960        0.7407194214        1.0357715640
 H         -4.9744606087       -0.0913402584        0.4653921686
 H         -6.3147972062        0.3790572315        1.4981763972
 C         -4.4299505274        1.0996469265        2.1668571449
 H         -4.2387028617        0.1975277384        2.7535856558
 H         -4.8952812206        1.8362990958        2.8256852328
 C         -3.0800430032        1.6518423705        1.6909343275
 H         -3.2026235564        2.6698254861        1.3214826538
 H         -2.3964251159        1.6673918048        2.5434710434
 H         -5.2104590389        0.8238024464       -1.7102246885
 H         -5.4964359550        2.5490502694       -1.9404240221
 H         -3.1984206975        2.1900043638       -2.3134993421
 H         -3.3243864635        3.0193604142       -0.7509939190
 O         -2.1813872224        0.1692812864       -1.6372078124
 C         -1.4291472732       -0.9504881392       -1.3120834036
 O         -1.0216654906       -1.5890061517       -2.2988121226
 O         -1.3863097221       -0.5311232912        2.2840186576
 C         -0.4172318754       -2.4627084167        0.4381659514
 C          1.0329149404       -2.1970187598        0.1222588088
 C          1.7103402663       -2.7641314745       -0.9482869268
 C          3.0229700698       -2.4088856347       -1.2117094255
 C          3.6849569393       -1.4902386268       -0.4171040960
 C          3.0143174130       -0.9214272994        0.6579651629
 C          1.7016824949       -1.2754499032        0.9200046635
 H          1.1741656433       -0.8218646063        1.7494390950
 N          3.6723132389        0.0406676694        1.4601113996
 S          4.0444705395        1.4622756403        0.6534270714
 O          5.1527905280        1.2198975381       -0.2336839109
 O          4.2556570241        2.4546669660        1.6824577442
 C          2.5768336154        1.8374021386       -0.2886586072
 C          2.5030476878        1.4527757649       -1.6118147871
 C          1.3339929554        1.6952261387       -2.3143853860
 C          0.2651809228        2.3121264026       -1.6841610885
 C          0.3507930386        2.6831633646       -0.3512256984
 C          1.5157190110        2.4397188324        0.3570245154
 H          1.6212535778        2.7213773058        1.3927355130
 H         -0.4870525998        3.1527536139        0.1387547269
 H         -0.6419120581        2.5004537802       -2.2357989086
 H          1.2547995398        1.3958831502       -3.3470749837
 H          3.3579602391        0.9809006452       -2.0675432335
 H          3.1520385025        0.2655049028        2.2974508665
 H          4.7011245307       -1.1918626476       -0.6185316362
 H          3.5369491736       -2.8530403680       -2.0505772201
 H          1.2047150196       -3.4690977810       -1.5869150540
 H         -0.5137184139       -2.5264979835        1.5312260168
 C         -0.9634802191       -3.7343453565       -0.1719594957
 C         -0.5576904501       -5.0557319946        0.4070277137
 C         -1.9540902289       -4.5488412723        0.6027327762
 H         -2.7580676436       -5.0292387183        0.0655462891
 H         -2.2365890934       -4.1951962968        1.5837483882
 H         -0.4018984662       -5.8872588163       -0.2629668026
 H          0.1098748695       -5.0439395077        1.2554337583
 H         -1.1059345324       -3.6704493827       -1.2433187339
