  62
        -98.93920064
 C         -2.1249671312       -1.0117911293       -0.1034097678
 C         -2.9387837915       -0.5460482097        0.9605677221
 C         -3.6746026688        0.7112549951        0.7469231706
 C         -3.5366846949        1.3611097598       -0.4235342309
 C         -4.1031050915        2.6787731833       -0.9102021929
 C         -5.2248515201        3.3756375241       -0.1450572719
 C         -6.5711818852        2.6530145160       -0.1899620279
 H         -6.9705826027        2.7291861702       -1.2044018636
 H         -7.2608225619        3.1721052903        0.4789632902
 C         -6.5372745213        1.1725022437        0.1805288910
 H         -5.9119589066        0.6306741444       -0.5319297352
 H         -7.5528462603        0.7799259238        0.0813554857
 C         -6.0570596946        0.8641975578        1.5969980812
 H         -6.2248883749       -0.2009464044        1.7772134366
 H         -6.6558487415        1.4237718753        2.3181028618
 C         -4.5706848675        1.1507090755        1.8692988116
 H         -4.2692806966        0.5693457488        2.7454615442
 H         -4.4064622342        2.1999177016        2.1030116172
 H         -5.3595298743        4.3543438505       -0.6135900086
 H         -4.9208450545        3.5584608564        0.8813866927
 H         -4.4268601333        2.5032248968       -1.9412324516
 H         -3.2468257736        3.3602647014       -0.9699408802
 O         -2.7383209178        0.8776188586       -1.4187260073
 C         -2.0185010718       -0.2990113387       -1.2957566429
 O         -1.3533648453       -0.5776650980       -2.3146908934
 O         -3.0445930838       -1.1593376173        2.0558454301
 C         -1.3409835714       -2.2926058280        0.1393023000
 C          0.0861965606       -1.9332100065        0.4759853879
 C          0.5414495777       -1.9924057134        1.7884174333
 C          1.8273507621       -1.5933675340        2.1079943926
 C          2.6804426928       -1.1155728356        1.1290225587
 C          2.2301018832       -1.0417111429       -0.1821683247
 C          0.9505116804       -1.4658706212       -0.5043131611
 H          0.6028698777       -1.3810499796       -1.5230434161
 N          3.0799305675       -0.5112940837       -1.1786508077
 S          3.4758682535        1.1135999171       -0.9677979196
 O          2.4471321402        1.8178741287       -0.2349320772
 O          3.7843250836        1.6138139079       -2.2899922949
 C          4.9753980186        1.0542915489       -0.0085539909
 C          5.0111086669        1.6186565628        1.2514096929
 C          6.1896711719        1.5583604537        1.9790250589
 C          7.3049519830        0.9384768303        1.4364307766
 C          7.2531837544        0.3785688336        0.1684007476
 C          6.0785719287        0.4361219338       -0.5644717195
 H          5.9954259325        0.0200550302       -1.5545228437
 H          8.1226643739       -0.1019024129       -0.2503503261
 H          8.2201374815        0.8922863023        2.0052424567
 H          6.2315536408        1.9934406001        2.9646424636
 H          4.1168225586        2.0852425764        1.6328679472
 H          2.7000897255       -0.6331644032       -2.1081722451
 H          3.6795802184       -0.7919343304        1.3715671537
 H          2.1664755820       -1.6472742518        3.1311976556
 H         -0.1314866479       -2.3331083154        2.5619840590
 H         -1.7944240389       -2.7411639354        1.0330893863
 C         -1.4371798383       -3.2871290942       -0.9990718898
 C         -1.1046556698       -4.7242707434       -0.7351925891
 C         -2.5256754658       -4.3164389868       -0.9797953876
 H         -2.9901236442       -4.5905509899       -1.9151630488
 H         -3.2064087007       -4.3082427613       -0.1410958140
 H         -0.5904226094       -5.2826386990       -1.5021221277
 H         -0.8215255409       -4.9934487445        0.2710400933
 H         -1.1668583694       -2.8744706741       -1.9622076282
