  62
        -98.93799334
 C         -2.2437691803       -0.7419214729       -0.3492556008
 C         -3.5840539967       -1.1210585482       -0.0719750581
 C         -4.4007354867       -0.1493606135        0.6659790306
 C         -3.8344423791        0.9954333352        1.0875024777
 C         -4.5559633049        2.0948468792        1.8104772379
 C         -5.1242152466        3.1272707953        0.8265205246
 C         -5.9134611931        2.5110728973       -0.3286948264
 H         -6.2911974311        3.3337710368       -0.9395936106
 H         -5.2325465936        1.9316479381       -0.9564105887
 C         -7.0837355146        1.6181374463        0.1067415494
 H         -7.3432198752        1.8277113303        1.1450509349
 H         -7.9567661108        1.8637202886       -0.5015186551
 C         -6.8330188929        0.1181025249       -0.0593729438
 H         -6.4838039583       -0.0846330331       -1.0750693722
 H         -7.7860439539       -0.4020591076        0.0679565318
 C         -5.8373273611       -0.5052953057        0.9270428330
 H         -6.1190335777       -0.2433656944        1.9490163261
 H         -5.9001050617       -1.5923565278        0.8214349283
 H         -5.7646598064        3.8156352599        1.3808702415
 H         -4.2931911403        3.6992214669        0.4072101484
 H         -5.3586427408        1.6644098371        2.4062403391
 H         -3.8473810447        2.5906053227        2.4762710678
 O         -2.5338133085        1.3007489039        0.8574553666
 C         -1.7050995617        0.4553381751        0.1268483638
 O         -0.5501404973        0.8982273229       -0.0145339375
 H          1.0945691007       -0.6778591911       -1.5308646527
 C          1.0738509472       -1.3643805564       -0.6989613069
 C         -0.1116113862       -1.9986591070       -0.3657638418
 C         -0.1272166878       -2.8521174640        0.7332915352
 C          1.0183595943       -3.0659398637        1.4766739455
 C          2.1997962091       -2.4260979438        1.1452759523
 C          2.2206433574       -1.5618532311        0.0593845527
 N          3.4143530979       -0.8993764057       -0.2848873746
 S          4.3514813553       -0.2934599867        0.9838421155
 O          5.1829192543       -1.3635157221        1.4800116227
 O          3.5204741827        0.3611009775        1.9689536311
 C          5.3568816683        0.9002188663        0.1235054170
 C          4.8511816257        2.1717205011       -0.0727305137
 C          5.6176385494        3.0982923723       -0.7617492984
 C          6.8681591414        2.7387523670       -1.2424333151
 C          7.3612207280        1.4588119828       -1.0382545139
 C          6.6002735068        0.5272824828       -0.3495792688
 H          6.9431412972       -0.4763917562       -0.1599645578
 H          8.3343519880        1.1844061507       -1.4121874553
 H          7.4620377119        3.4629119572       -1.7773783572
 H          5.2366809994        4.0944535306       -0.9201861765
 H          3.8772098677        2.4109011160        0.3255651444
 H          3.2495017243       -0.1806359298       -0.9769964309
 H          3.0971960023       -2.5674339346        1.7262865913
 H          0.9923857240       -3.7307146584        2.3273284332
 H         -1.0542828719       -3.3374646754        1.0066721658
 C         -1.3914888874       -1.7390004652       -1.1169356559
 H         -1.9864463802       -2.6664758582       -1.1040133908
 C         -1.1641061272       -1.3938236379       -2.5810939465
 C         -2.2716612962       -0.8015905534       -3.3991837635
 C         -1.0508922102        0.0100159564       -3.0917642343
 H         -0.3523653222        0.2030998319       -3.8931443428
 H         -1.1320119908        0.8171758599       -2.3811390884
 H         -2.4174032022       -1.1563452824       -4.4081886154
 H         -3.1892698211       -0.5568973820       -2.8839857394
 H         -0.5446268492       -2.1379120694       -3.0728609277
 O         -4.0754007504       -2.2253767657       -0.4274126477
