  62
        -98.93798387
 C         -2.2014293333       -0.7744593016       -0.3445653435
 C         -3.5379175092       -1.1106291650        0.0000353115
 C         -4.3094714552       -0.0854456268        0.7137665453
 C         -3.7072246824        1.0677540545        1.0546921994
 C         -4.3802820553        2.2171700305        1.7459221819
 C         -4.9639050430        3.2102433471        0.7310021549
 C         -5.8068691671        2.5526459343       -0.3617293078
 H         -6.1913247825        3.3506558639       -1.0005414516
 H         -5.1606927168        1.9278081026       -0.9825321103
 C         -6.9767377966        1.7075291978        0.1614767493
 H         -7.8671002674        1.9402136468       -0.4263482808
 H         -7.1931305104        1.9747938482        1.1964029137
 C         -6.7612223443        0.1960185566        0.0637613980
 H         -6.4537587119       -0.0651832664       -0.9520624372
 H         -7.7187135886       -0.2968603508        0.2517922324
 C         -5.7418769232       -0.3977233338        1.0443273511
 H         -5.9802378611       -0.0786587180        2.0610842974
 H         -5.8294033159       -1.4871464180        0.9969267357
 H         -5.5699320773        3.9394968360        1.2715709094
 H         -4.1378661637        3.7421147914        0.2532119086
 H         -5.1687648948        1.8344477178        2.3911217970
 H         -3.6381866510        2.7305473137        2.3598817729
 O         -2.4111278472        1.3344799431        0.7614445292
 C         -1.6251168905        0.4360599130        0.0471208749
 O         -0.4700866239        0.8515157165       -0.1606859003
 H          1.0858842383       -0.7930492153       -1.5461202322
 C          1.0733452134       -1.4628924474       -0.7006045793
 C         -0.1087745286       -2.0910821961       -0.3438520317
 C         -0.1130850892       -2.9263555036        0.7689934830
 C          1.0399358062       -3.1275354999        1.5049916120
 C          2.2159379917       -2.4881594420        1.1545517408
 C          2.2247606303       -1.6415847454        0.0545308796
 N          3.4122376622       -0.9723641140       -0.2978787188
 S          4.3003275504       -0.2984606441        0.9730281506
 O          5.1960573722       -1.3103714642        1.4799908471
 O          3.4212184786        0.3025447259        1.9502236469
 C          5.2305423173        0.9577180112        0.1171214676
 C          4.6128779549        2.1665902751       -0.1447330460
 C          5.3175553848        3.1437774676       -0.8296070316
 C          6.6190889656        2.8959602771       -1.2406735748
 C          7.2242844934        1.6777963525       -0.9712213574
 C          6.5254204848        0.6957643468       -0.2866860486
 H          6.9541880838       -0.2637307976       -0.0491182702
 H          8.2364696161        1.4904407635       -1.2912751198
 H          7.1643353269        3.6595885999       -1.7725134811
 H          4.8488087290        4.0919087555       -1.0391786023
 H          3.6017025618        2.3201159183        0.1999848114
 H          3.2455139052       -0.2816470995       -1.0176124242
 H          3.1188862976       -2.6138774543        1.7309724080
 H          1.0228642164       -3.7797039125        2.3655184697
 H         -1.0371785423       -3.4069612887        1.0599902359
 C         -1.3960892798       -1.8320418411       -1.0821492580
 H         -2.0169725870       -2.7395055121       -1.0114728375
 C         -1.1877327776       -1.5671768387       -2.5657470520
 C         -2.3071900553       -1.0192639003       -3.3985820743
 C         -1.0800462372       -0.1950811374       -3.1571107765
 H         -0.3933499929       -0.0506119134       -3.9787063834
 H         -1.1486286355        0.6521927460       -2.4935334709
 H         -3.2155088551       -0.7433528437       -2.8826549995
 H         -2.4704470766       -1.4300107339       -4.3833548001
 H         -0.5771050115       -2.3393254984       -3.0242423387
 O         -4.0627096595       -2.2215087532       -0.2789024010
