  62
        -98.94490089
 C          1.8378630601       -0.4036938017       -0.0804435323
 C          2.9159811875       -0.4726853369       -1.0039027899
 C          4.0662170769        0.3995152791       -0.7394286737
 C          4.0350642760        1.2180905607        0.3274450890
 C          5.1540946732        2.1240921529        0.7498119424
 C          6.0955797669        1.4210993390        1.7378157138
 C          6.5465216984        0.0338720057        1.2804121846
 H          7.2298782881       -0.3523743442        2.0397788976
 H          5.6813493485       -0.6326416598        1.2578401702
 C          7.2386445404        0.0109011980       -0.0896230198
 H          7.5690713166        1.0158497742       -0.3548516302
 H          8.1304987339       -0.6155583868       -0.0210330197
 C          6.3822420032       -0.5561905594       -1.2233833018
 H          5.9721467656       -1.5238481544       -0.9236965449
 H          7.0316385005       -0.7291461132       -2.0856556206
 C          5.2244485677        0.3329750501       -1.6945527257
 H          5.5971862197        1.3348704148       -1.9175909686
 H          4.8273554270       -0.0991457466       -2.6176915543
 H          6.9689585941        2.0569134326        1.8938463504
 H          5.5776101157        1.3149279437        2.6938204421
 H          5.7074018432        2.4437338415       -0.1312108222
 H          4.7224110039        3.0016634159        1.2342940282
 O          2.9810530465        1.2755563978        1.1771600132
 C          1.8640528465        0.4701160522        1.0063391566
 O          0.9947470460        0.6469394486        1.8849612479
 H         -0.7788184103        0.7480091134        0.6158910389
 C         -1.1362746075        0.4266765794       -0.3509812152
 C         -0.4916021578       -0.6148535095       -1.0031293906
 C         -0.9625392007       -1.0096301412       -2.2495448431
 C         -2.0514651406       -0.3782131422       -2.8261041403
 C         -2.6923374250        0.6583003298       -2.1718468864
 C         -2.2222851005        1.0649601147       -0.9299883405
 N         -2.8814367349        2.1086769176       -0.2449139365
 S         -4.4954036429        1.8053407016        0.0982028167
 O         -5.2833303166        2.0450782066       -1.0849161464
 O         -4.8149434675        2.6212182629        1.2480827173
 C         -4.5372045079        0.0714526476        0.5155899629
 C         -5.0732591418       -0.8375416152       -0.3733415747
 C         -5.0250376416       -2.1866288185       -0.0609986959
 C         -4.4390906034       -2.6006639026        1.1247627549
 C         -3.9048313133       -1.6745787936        2.0074678183
 C         -3.9496341070       -0.3248097338        1.7005090951
 H         -3.5449490522        0.4219570442        2.3653203700
 H         -3.4486027214       -1.9967580194        2.9300116547
 H         -4.3992060742       -3.6517763927        1.3638526863
 H         -5.4392454431       -2.9099151300       -0.7445787709
 H         -5.5176506809       -0.4721127183       -1.2844193724
 H         -2.3974779458        2.3827535933        0.5989547482
 H         -3.5479202922        1.1571511612       -2.5977493361
 H         -2.4060528156       -0.6971400160       -3.7942036801
 H         -0.4629108851       -1.8124422427       -2.7714937087
 C          0.6636232004       -1.3311541319       -0.3456567054
 H          1.0448411126       -2.0728743493       -1.0600701122
 C          0.1796676654       -2.0614462470        0.8933516935
 C         -0.6042771876       -3.3273312631        0.7293974646
 C          0.7962789080       -3.3761530291        1.2607249789
 H          0.9481832502       -3.5988622067        2.3062265793
 H          1.5740518229       -3.7607076796        0.6169713958
 H         -0.7774153017       -3.6805700714       -0.2754971129
 H         -1.4200879442       -3.5167000078        1.4088941633
 H         -0.0963221323       -1.3977582440        1.7021200168
 O          2.9151968180       -1.2391241416       -2.0036100408
