  62
        -98.94444008
 C         -1.8353433371       -1.1860136198        0.1040535472
 C         -1.1514592808       -1.9602194461       -0.8622621498
 C          0.0702026816       -2.6609913639       -0.4199834746
 C          0.4179327633       -2.5971335554        0.8784668650
 C          1.6197582285       -3.1938914094        1.5620652056
 C          2.9099788758       -2.4065139135        1.2904123486
 C          3.1352288385       -2.0293335002       -0.1710793497
 H          2.3160531940       -1.3982168780       -0.5224459433
 H          4.0421711944       -1.4195534344       -0.2209176022
 C          3.3130426538       -3.2078345058       -1.1266975237
 H          3.5842434335       -2.7890383102       -2.0994302083
 H          4.1468037301       -3.8257395522       -0.7853121049
 C          2.0876680492       -4.1045093405       -1.3268067509
 H          1.9702355165       -4.8075869185       -0.5061813720
 H          2.2672568974       -4.7027451622       -2.2248593312
 C          0.7842206821       -3.3471933694       -1.5578380098
 H          0.0490562361       -4.0321187814       -1.9975475970
 H          0.9489756377       -2.5725581073       -2.3174661813
 H          3.7544373245       -2.9994792787        1.6463247945
 H          2.8756880433       -1.4806717796        1.8698424888
 H          1.4145669646       -3.1640471214        2.6344249852
 H          1.7371836851       -4.2347153410        1.2759458961
 O         -0.3215468693       -1.9055331186        1.7926698529
 C         -1.4122791272       -1.1331330033        1.4307810478
 O         -1.9037940095       -0.4740042396        2.3661949102
 O         -1.5352249776       -2.0528566052       -2.0603628061
 C         -2.9806702703       -0.2954670004       -0.3492313535
 C         -2.4965808368        1.1335231196       -0.2713093200
 C         -3.1008103045        2.1228359751        0.4920842490
 C         -2.5441226254        3.3893233086        0.5572341368
 C         -1.3734831477        3.6881174776       -0.1154235156
 C         -0.7652561989        2.7069462737       -0.8918967964
 C         -1.3438297174        1.4516828348       -0.9812762743
 H         -0.8721437584        0.6978896668       -1.5951140791
 N          0.4253557438        2.9727106321       -1.5939391627
 S          1.7271208040        1.9276425985       -1.4769292860
 O          2.8089150561        2.6267261297       -2.1353677137
 O          1.3818667799        0.6365167666       -2.0107480525
 C          2.0714284013        1.8081874897        0.2673014932
 C          1.2792980152        0.9866722532        1.0423543489
 C          1.5004575778        0.9301826883        2.4089292799
 C          2.5135195856        1.6899087814        2.9737704779
 C          3.3058648948        2.5074277832        2.1812193553
 C          3.0806574134        2.5752313212        0.8157312868
 H          3.6717018888        3.1955436074        0.1615657133
 H          4.0945403036        3.0936470805        2.6246196740
 H          2.6846962860        1.6410266147        4.0376063916
 H          0.8697269869        0.2963916223        3.0135573032
 H          0.5022359292        0.4027466196        0.5746934747
 H          0.7461088522        3.9271762392       -1.5112514494
 H         -0.9323946564        4.6707937536       -0.0451484623
 H         -3.0211333427        4.1503598184        1.1557397553
 H         -3.9995540239        1.9008604995        1.0430788687
 H         -3.1403880025       -0.5439974723       -1.4087605438
 C         -4.2561019219       -0.5643493533        0.4163933752
 C         -5.5762216551       -0.1850576462       -0.1834137937
 C         -5.1884340600       -1.6283669665       -0.0769870173
 H         -5.6932815001       -2.2477224174        0.6490199344
 H         -4.9118783095       -2.1530397097       -0.9801190212
 H         -6.3523355483        0.1854922799        0.4687679779
 H         -5.5670095004        0.2708425662       -1.1620191005
 H         -4.1329057353       -0.4682652077        1.4884957657
