  62
        -98.94491242
 C         -1.9520580995       -0.8542701792        0.0742952611
 C         -2.2628077536        0.1064591498        1.0638252510
 C         -2.3869049854        1.4928507062        0.5978130271
 C         -2.1664143340        1.7711315956       -0.7002487928
 C         -2.2958199148        3.1334003917       -1.3174524824
 C         -3.7156460649        3.3719627160       -1.8506907776
 C         -4.8167870843        3.0317259071       -0.8463715631
 H         -5.7724838319        3.2656469206       -1.3201056718
 H         -4.8049179265        1.9559377221       -0.6574221650
 C         -4.7107432703        3.7809107692        0.4891554136
 H         -5.7011009055        4.1496696260        0.7638700512
 H         -4.0604857502        4.6489781942        0.3762094811
 C         -4.2146131024        2.9267098772        1.6572517774
 H         -4.8047041656        2.0088316294        1.7168350926
 H         -4.3814794457        3.4846003877        2.5824418857
 C         -2.7302049182        2.5407867156        1.6191640950
 H         -2.1180001419        3.4336232155        1.4736276077
 H         -2.4721039805        2.1060656102        2.5896002529
 H         -3.8009012217        4.4188898587       -2.1472338163
 H         -3.8586243357        2.7529535465       -2.7392849379
 H         -2.0420883346        3.8867348609       -0.5739123280
 H         -1.5859976888        3.2007142395       -2.1438467975
 O         -1.8485616827        0.8245225035       -1.6196326536
 C         -1.7231503586       -0.5068231027       -1.2572383191
 O         -1.4255140017       -1.2707818043       -2.1960114615
 H          0.4710823150       -0.9171751438        0.8767197320
 C          0.6799371025       -1.8742574585        0.4194325056
 C         -0.3648326095       -2.7478511409        0.1445716447
 C         -0.0672485220       -3.9781006777       -0.4269509468
 C          1.2402440188       -4.3027487536       -0.7458500806
 C          2.2701230532       -3.4103877834       -0.5144784772
 C          1.9847135778       -2.1846014993        0.0776223691
 N          3.0077566721       -1.2593879977        0.3541136854
 S          2.6460550971        0.3861904108        0.2266197278
 O          2.0252868058        0.8210146635        1.4540091948
 O          1.9189534332        0.6552961350       -0.9937122756
 C          4.2962682586        1.0567520944        0.1281574247
 C          5.0311190205        1.1761131697        1.2928925690
 C          6.3272222967        1.6610985143        1.2203780807
 C          6.8643544300        2.0161686122       -0.0082937908
 C          6.1141462999        1.8932378689       -1.1680751438
 C          4.8175196009        1.4070058081       -1.1027866918
 H          4.1932558134        1.2995563633       -1.9755660996
 H          6.5325066679        2.1730943960       -2.1214317534
 H          7.8731440192        2.3937623666       -0.0621858059
 H          6.9123891855        1.7603853637        2.1202451291
 H          4.5668025506        0.8960170817        2.2239598321
 H          3.8711707595       -1.4814756585       -0.1235588798
 H          3.2851619894       -3.6558066196       -0.7874466373
 H          1.4571675473       -5.2585665371       -1.1981964633
 H         -0.8603921024       -4.6770326983       -0.6363503006
 C         -1.7668096414       -2.3037172429        0.4839988588
 H         -1.8778308660       -2.3159993428        1.5792321329
 C         -2.8436652663       -3.1757582416       -0.1272323184
 C         -3.3175013529       -4.4069172582        0.5843089246
 C         -4.2007331665       -3.1991555587        0.5078456354
 H         -5.0691580655       -3.2312848309       -0.1327822420
 H         -4.3378882728       -2.6056985189        1.4001611094
 H         -2.8623655175       -4.6405293347        1.5348579860
 H         -3.5840202703       -5.2717926539       -0.0041880288
 H         -2.7966782274       -3.1914321723       -1.2104822447
 O         -2.4281016944       -0.1835855063        2.2813059551
