  62
        -98.93799110
 C         -2.4098467357       -1.2063657165       -0.1091283679
 C         -3.1695577186       -0.4763625156        0.8310425790
 C         -3.9847289210        0.6390681385        0.3112597800
 C         -3.9549226377        0.8994564183       -1.0093888517
 C         -4.6584183997        2.0023474529       -1.7542780303
 C         -3.9757917251        3.3679042766       -1.5691125401
 C         -3.5351360298        3.6792944636       -0.1408764081
 H         -2.8599268089        2.8942425461        0.2057173278
 H         -2.9622044050        4.6101862467       -0.1647993652
 C         -4.6685045751        3.8552011765        0.8671243228
 H         -5.3099770095        4.6779300646        0.5434632610
 H         -4.2146771361        4.1433132592        1.8190584775
 C         -5.5449956924        2.6252471130        1.1111263056
 H         -6.2449390058        2.4760076094        0.2936138176
 H         -6.1469763736        2.8270851928        2.0020396785
 C         -4.7769822738        1.3368691016        1.3908761045
 H         -4.0737736022        1.5113008507        2.2136568932
 H         -5.4824005035        0.5876500518        1.7707879085
 H         -3.0852993735        3.3874541585       -2.2020638652
 H         -4.6563845359        4.1454075233       -1.9195668742
 H         -4.6232252969        1.7375195384       -2.8131712281
 H         -5.7021484309        2.0454460410       -1.4581270121
 O         -3.1947183296        0.1746415487       -1.8789226639
 C         -2.4047493847       -0.8820408134       -1.4653609505
 O         -1.7624453897       -1.4356022527       -2.3766656228
 H         -0.2454062081       -0.0888297081        0.8424840235
 C          0.4150641642       -0.8227162160        0.3957345478
 C         -0.0916486278       -2.0755711667        0.0712048431
 C          0.7710932085       -3.0122489529       -0.4817580212
 C          2.0956102847       -2.6886156644       -0.7224391419
 C          2.5887143167       -1.4337817914       -0.4175933765
 C          1.7390985677       -0.4935412424        0.1513464363
 N          2.2260294020        0.7890916904        0.4576761009
 S          3.6472633479        0.9125928563        1.3437069912
 O          3.8319850988       -0.2291585179        2.2091120817
 O          3.5767545877        2.2047331801        1.9905351223
 C          4.9221717355        0.9533151692        0.1020393637
 C          4.8400058763        1.9189991629       -0.8818839207
 C          5.8265116964        1.9694144649       -1.8535958073
 C          6.8740257770        1.0607270810       -1.8232003287
 C          6.9442204623        0.0998010894       -0.8262822088
 C          5.9598383614        0.0431188871        0.1482219346
 H          5.9695710736       -0.6899286238        0.9390525512
 H          7.7595917382       -0.6051825669       -0.8043023760
 H          7.6400302552        1.1021552358       -2.5813498593
 H          5.7748577107        2.7150959351       -2.6305630745
 H          4.0117517004        2.6077666696       -0.8680386953
 H          1.5229099017        1.4129500856        0.8261670406
 H          3.6171597786       -1.1768246373       -0.6113761229
 H          2.7526877632       -3.4248276601       -1.1594943270
 H          0.4060885271       -3.9951759368       -0.7297258429
 C         -1.5443774942       -2.3563802957        0.3704863381
 H         -1.6659912891       -2.3778398946        1.4643697991
 C         -2.0413409594       -3.6679410718       -0.1998116747
 C         -1.8429285760       -4.9455862753        0.5580549066
 C         -3.2101313112       -4.3419040980        0.4520556275
 H         -3.9429680976       -4.8255552315       -0.1761102748
 H         -3.6308170251       -3.8675462821        1.3269072928
 H         -1.3368755520       -4.8888477790        1.5100510738
 H         -1.6391773195       -5.8485676136        0.0026259808
 H         -1.9866041319       -3.6973320324       -1.2821550555
 O         -3.1619754645       -0.7329142952        2.0673232309
