  62
        -98.93440173
 C         -2.3053964259       -0.7341717104       -0.1367862695
 C         -3.5390338136       -1.0592351529        0.4706926667
 C         -4.7436918345       -0.3972269459       -0.0662361983
 C         -4.6044995334        0.4588647890       -1.0958087180
 C         -5.6713047239        1.2765959511       -1.7735320800
 C         -6.0954402269        2.4986959585       -0.9416080009
 C         -6.2784374888        2.2304122486        0.5501180929
 H         -6.4542337999        3.1912212289        1.0411330618
 H         -5.3504084925        1.8246462296        0.9572478399
 C         -7.4386073991        1.3046685561        0.9080373280
 H         -8.3710901878        1.7441356246        0.5466904326
 H         -7.4936100758        1.2594496947        1.9987516603
 C         -7.3412560704       -0.1266347301        0.3769709174
 H         -7.5816979525       -0.1673773443       -0.6818673094
 H         -8.1052136208       -0.7168257288        0.8916237627
 C         -6.0080418749       -0.8191764135        0.6432803337
 H         -6.1231446163       -1.8889502408        0.4301582913
 H         -5.7828200779       -0.7626859035        1.7143514897
 H         -7.0219262849        2.8962270594       -1.3590699574
 H         -5.3212792751        3.2624118282       -1.0481802646
 H         -6.5263035969        0.6504086847       -2.0101833725
 H         -5.2450981881        1.6284816497       -2.7154956186
 O         -3.3915940693        0.7393753311       -1.6534592401
 C         -2.2189180945        0.1676295249       -1.1962555908
 O         -1.1955998370        0.5336275032       -1.8054043371
 O         -3.6369848244       -1.8644969376        1.4366726342
 C         -1.0346182945       -1.3767567511        0.3884739505
 C         -0.0917675969       -0.3077498534        0.8823029231
 C         -0.5396315760        0.5717306025        1.8660012618
 C          0.2808767896        1.5732525196        2.3455403059
 C          1.5698309825        1.7146833629        1.8614271066
 C          2.0251714924        0.8457866007        0.8774831210
 C          1.1972325525       -0.1607282354        0.3977319729
 H          1.5781472627       -0.8194441567       -0.3641668768
 N          3.3157019565        0.9888196403        0.3443967249
 S          4.1621888230       -0.3847742943       -0.1449399791
 O          3.7330274776       -0.7632213800       -1.4675479931
 O          4.0772029640       -1.4087286410        0.8724360998
 C          5.8164233527        0.2781032274       -0.2186808082
 C          6.6889180274        0.0554335557        0.8297031648
 C          7.9609793951        0.6031424464        0.7709051790
 C          8.3356157181        1.3624711096       -0.3272552642
 C          7.4490185395        1.5767280220       -1.3724270505
 C          6.1765033674        1.0306425262       -1.3208940028
 H          5.4566947524        1.1622168919       -2.1121196616
 H          7.7444435487        2.1653947146       -2.2259251446
 H          9.3257217579        1.7880115101       -0.3706719778
 H          8.6537470587        0.4356137851        1.5797630021
 H          6.3561072079       -0.5475664247        1.6591250901
 H          3.8972880306        1.6173082543        0.8813342085
 H          2.2130655770        2.4970339437        2.2347231852
 H         -0.0817588165        2.2467794102        3.1075595759
 H         -1.5457486406        0.4566374539        2.2464433372
 H         -1.3478443538       -1.9817447974        1.2526912643
 C         -0.4255697022       -2.2937047802       -0.6498237517
 C          0.4840369812       -3.4056432242       -0.2235776318
 C         -0.8893514948       -3.7154669629       -0.7368206182
 H         -0.9864200781       -4.1669088577       -1.7127098337
 H         -1.6389892156       -4.0368667304       -0.0285258787
 H          1.3374691793       -3.6376998537       -0.8434242676
 H          0.6723306174       -3.5178294342        0.8337272984
 H         -0.2014043339       -1.7836053902       -1.5806870158
