  62
        -98.94494548
 C          1.1038607221        1.2125292341        0.4315642709
 C          1.6909711592        0.6692263975       -0.7394837882
 C          2.4713083947       -0.5658915312       -0.5523421415
 C          2.5641436108       -1.1188516967        0.6693348702
 C          3.3514560256       -2.3526262363        1.0005272993
 C          4.7874226301       -2.0027300651        1.4156699551
 C          5.4922596167       -1.0441189700        0.4560093854
 H          4.9889440609       -0.0750847402        0.4858388157
 H          6.5057861435       -0.8925494584        0.8334343562
 C          5.5565305652       -1.5343909388       -0.9971942365
 H          5.3735852979       -2.6089534388       -1.0349070682
 H          6.5644301319       -1.3631427603       -1.3810988398
 C          4.5915868890       -0.8249771355       -1.9493333825
 H          4.7068038843        0.2573936217       -1.8498133723
 H          4.8669025412       -1.0902718436       -2.9736514288
 C          3.1071624658       -1.1686326260       -1.7725343654
 H          2.5613379751       -0.7581221518       -2.6276440053
 H          2.9726098298       -2.2527955863       -1.7796491576
 H          5.3593733638       -2.9291335774        1.4926733980
 H          4.7579355921       -1.5375149697        2.4035446293
 H          2.8566594935       -2.8638259766        1.8283135645
 H          3.3602731617       -3.0126116059        0.1349403120
 O          1.9769070220       -0.5795884446        1.7676195800
 C          1.2431958802        0.5924967303        1.6758936329
 O          0.7681074073        0.9782663198        2.7628403553
 H         -0.7646381350        0.5316824297       -1.2413916693
 C         -1.5317347052        1.1366036317       -0.7855802517
 C         -1.1969631037        2.1675610609        0.0779869498
 C         -2.2213031673        2.9390363974        0.6182850234
 C         -3.5418151233        2.6838944440        0.2990645247
 C         -3.8721849406        1.6345444452       -0.5405821952
 C         -2.8583691119        0.8540158900       -1.0804558602
 N         -3.1501345231       -0.2458889155       -1.9090155289
 S         -2.4445693351       -1.7135671711       -1.5111716812
 O         -1.0576242448       -1.7341589125       -1.8954779467
 O         -3.2931673773       -2.7035870299       -2.1398130896
 C         -2.6091373877       -1.7966072393        0.2618587998
 C         -3.8455734262       -2.1038082710        0.7960294249
 C         -4.0064981677       -2.0732534918        2.1714050791
 C         -2.9393574084       -1.7203050743        2.9842758579
 C         -1.7037766881       -1.4169533269        2.4337950046
 C         -1.5353562346       -1.4590108283        1.0589599744
 H         -0.5873162576       -1.2302329631        0.5971464083
 H         -0.8729680105       -1.1234128399        3.0569790320
 H         -3.0672457786       -1.6805868554        4.0544576605
 H         -4.9630322083       -2.3149623409        2.6058925666
 H         -4.6486329398       -2.3741105835        0.1295976515
 H         -4.1362183348       -0.3725387163       -2.0902979098
 H         -4.9032138092        1.4193991181       -0.7758326692
 H         -4.3243840576        3.2944844175        0.7221227514
 H         -1.9760168092        3.7392400362        1.2995084184
 C          0.2438966630        2.4635298963        0.4323445562
 H          0.2560231958        2.8333079867        1.4676463470
 C          0.7795640788        3.5605271522       -0.4699662927
 C          0.5669121248        4.9979256898       -0.1069233673
 C          1.9348164765        4.3940472496       -0.0063092019
 H          2.6863320991        4.6775374205       -0.7276138898
 H          2.3309097693        4.1911605091        0.9784800334
 H          0.3731314531        5.7030276394       -0.9004680462
 H          0.0484601288        5.2175124795        0.8136771661
 H          0.7511542975        3.2955187521       -1.5191281178
 O          1.5816088233        1.1685313885       -1.8902466148
