  62
        -98.93523652
 C          2.3663512741       -1.4061067483        0.0185138179
 C          3.0891759587       -0.7080850397       -0.9805417016
 C          3.9508985967        0.4082754789       -0.5479604217
 C          4.0062242019        0.7071262069        0.7628279021
 C          4.7760688483        1.8086629333        1.4420949687
 C          4.1284108815        3.1890056274        1.2519388534
 C          3.6695367698        3.4914522974       -0.1720364180
 H          2.9418173404        2.7386558820       -0.4822566633
 H          3.1476852314        4.4521609865       -0.1547943914
 C          4.7858940620        3.5830898558       -1.2100332346
 H          4.3274045321        3.9072735072       -2.1477054235
 H          5.4960817014        4.3542470682       -0.9037341190
 C          5.5571500984        2.2893859270       -1.4829571256
 H          6.2892970525        2.0947101993       -0.7038579279
 H          6.1207770484        2.4370237409       -2.4086433197
 C          4.6799624800        1.0602944563       -1.6978200244
 H          5.2915960248        0.2670210596       -2.1440783351
 H          3.9159429132        1.2902076039       -2.4493309947
 H          4.8388138662        3.9508062591        1.5777355470
 H          3.2512614609        3.2449531812        1.9018832380
 H          4.7840655795        1.5727477706        2.5086439684
 H          5.8053452937        1.8143685175        1.0960157814
 O          3.2879209353        0.0145311794        1.6910406419
 C          2.4506301105       -1.0380595102        1.3605189212
 O          1.8648344388       -1.5353797354        2.3420752320
 O          3.0237360289       -1.0096701226       -2.2029165699
 C          1.4891720027       -2.5543092138       -0.4514339682
 C          0.0788583518       -2.0763847230       -0.6842985152
 C         -0.5481820736       -2.2504610798       -1.9118455676
 C         -1.8314463495       -1.7746088324       -2.1206366478
 C         -2.5136057874       -1.1181537250       -1.1119850527
 C         -1.8933161056       -0.9348070170        0.1171241332
 C         -0.6093887320       -1.4145457757        0.3241886989
 H         -0.1299791416       -1.2666635524        1.2813715281
 N         -2.5782742007       -0.2590833449        1.1490011315
 S         -3.0078008286        1.3347708720        0.8167215482
 O         -2.1010055694        1.9353930601       -0.1357426404
 O         -3.1122069749        1.9839850117        2.1052787835
 C         -4.6337783059        1.1886066711        0.1060864623
 C         -4.8716156858        1.6506963911       -1.1734580017
 C         -6.1459814174        1.5245411160       -1.7047046530
 C         -7.1535275637        0.9421146209       -0.9509372303
 C         -6.8985596290        0.4853729572        0.3337904600
 C         -5.6273929614        0.6094258841        0.8712265617
 H         -5.3868243751        0.2729180141        1.8658399818
 H         -7.6846653528        0.0332378268        0.9167622626
 H         -8.1435988089        0.8437735149       -1.3672743199
 H         -6.3459984773        1.8792919561       -2.7029838050
 H         -4.0548619304        2.0908864787       -1.7230888943
 H         -2.0833009096       -0.2958610143        2.0299782095
 H         -3.5121926296       -0.7439999580       -1.2684637608
 H         -2.3050774566       -1.9147302909       -3.0801681229
 H         -0.0150251616       -2.7451918843       -2.7103944195
 H          1.9069785087       -2.8371646307       -1.4304504093
 C          1.5722763964       -3.7788639703        0.4498637738
 C          0.4283944688       -4.2933037185        1.2667712439
 C          0.8737958666       -5.0454922799        0.0511516343
 H          1.3896396617       -5.9847972273        0.1792719634
 H          0.2368100939       -5.0036883957       -0.8195385678
 H          0.6556158167       -4.6949868022        2.2425532370
 H         -0.5119138866       -3.7668991510        1.2238245034
 H          2.5578350196       -3.8859127983        0.8918626535
