  62
        -98.93116622
 C          2.5228070539        1.2957996236       -0.3692473953
 C          1.9963449071        0.0088188223       -0.6357674713
 C          2.9417389113       -1.1285369346       -0.5649353250
 C          4.2322684600       -0.8913532782       -0.2709485380
 C          5.3565097034       -1.8809461771       -0.1179915128
 C          5.2980115941       -2.6423926102        1.2162285868
 C          3.9082884428       -3.1290915695        1.6191481764
 H          3.9822903859       -3.5494776841        2.6257216535
 H          3.2297814286       -2.2754043384        1.6770344491
 C          3.3036818725       -4.1972261685        0.7109895559
 H          3.9631938081       -5.0678514800        0.6939466873
 H          2.3567461624       -4.5061833430        1.1615541114
 C          3.0251828486       -3.7699664830       -0.7313630299
 H          2.3881192338       -4.5381228171       -1.1795222260
 H          3.9400107815       -3.7472329760       -1.3173153113
 C          2.2754288629       -2.4487505231       -0.8706836917
 H          1.9107096990       -2.3636707174       -1.9016739719
 H          1.3731253596       -2.4811237893       -0.2481859266
 H          5.9809799241       -3.4916162877        1.1594603398
 H          5.6556465951       -1.9733680409        2.0027256729
 H          5.3651763675       -2.5694446437       -0.9577028100
 H          6.2848947725       -1.3063091593       -0.1490175097
 O          4.6959074979        0.3664485234       -0.0198056083
 C          3.8701069506        1.4706737184       -0.0384262115
 O          4.4429023712        2.5414502610        0.2475201724
 H         -0.8674393270        1.8091799839       -1.0353872289
 C         -0.7512101632        1.9175690281        0.0315304004
 C          0.4712278386        2.3138464448        0.5486385212
 C          0.6127572965        2.4175665204        1.9287289435
 C         -0.4469837735        2.1323801901        2.7701762642
 C         -1.6621139170        1.7206921988        2.2520324799
 C         -1.8060769120        1.5993696624        0.8767020315
 N         -3.0309798486        1.1555914402        0.3426651289
 S         -3.7571276261       -0.1536512055        1.1288758670
 O         -4.5853995893        0.3647134051        2.1911898588
 O         -2.7645160440       -1.1249806160        1.5292332273
 C         -4.7831785696       -0.8142384384       -0.1700514591
 C         -4.2034795575       -1.6584930949       -1.0987615929
 C         -4.9852709529       -2.1610643772       -2.1267012212
 C         -6.3248685043       -1.8105161324       -2.2096142160
 C         -6.8913694660       -0.9614931767       -1.2709165478
 C         -6.1154232799       -0.4554965989       -0.2397825003
 H         -6.5117792179        0.2019342423        0.5163036971
 H         -7.9331712793       -0.6929271704       -1.3386385701
 H         -6.9303314278       -2.2042991446       -3.0106225939
 H         -4.5467200796       -2.8221523982       -2.8569345227
 H         -3.1597462489       -1.9111114076       -0.9924469589
 H         -2.9534701072        0.9733641772       -0.6492010453
 H         -2.4911392540        1.4675699617        2.8940349398
 H         -0.3241853081        2.2194648186        3.8395679431
 H          1.5708378937        2.7111667907        2.3363523937
 C          1.6659230745        2.5526381915       -0.3395603368
 H          2.3014574019        3.3112270900        0.1439694512
 C          1.2897935931        3.1111349919       -1.7039200977
 C          2.3117037693        3.1709288772       -2.7992924448
 C          1.1247895673        2.2669183602       -2.9298457603
 H          0.3505842032        2.5405648977       -3.6320978499
 H          1.2739895383        1.2032508579       -2.8382957226
 H          2.3593405260        4.0562619667       -3.4150513009
 H          3.2750082695        2.7240402970       -2.5990237303
 H          0.6279933298        3.9673729717       -1.6129453625
 O          0.7942293425       -0.2178060318       -0.9322805040
