  62
        -98.94398721
 C         -1.8170214677       -1.1546505657        0.3272979911
 C         -2.0839154404       -0.1757653584       -0.6598968271
 C         -3.4955612556       -0.0228046899       -1.0362885118
 C         -4.4297853135       -0.8084465075       -0.4704833712
 C         -5.9041738986       -0.7883145296       -0.7707082650
 C         -6.6857734723        0.2779077065        0.0089965283
 C         -6.4550802775        1.7186241162       -0.4489131114
 H         -6.6116724126        1.7862679748       -1.5259033428
 H         -7.2192552439        2.3335850754        0.0305607053
 C         -5.0726811407        2.2829379717       -0.0918855080
 H         -5.1848265782        3.2852730650        0.3275474832
 H         -4.6136153959        1.6628105903        0.6814790441
 C         -4.1077470628        2.3925319024       -1.2727170551
 H         -4.4914902202        3.1175317610       -1.9941667751
 H         -3.1490150475        2.7635860260       -0.9001342635
 C         -3.8491369364        1.0675068019       -2.0018234901
 H         -2.9971434205        1.2065987364       -2.6721723452
 H         -4.7196524534        0.7871976754       -2.5946909594
 H         -7.7481853316        0.0497408907       -0.1029679228
 H         -6.4364144549        0.1883937825        1.0687703977
 H         -6.2911843002       -1.7708155312       -0.4921986373
 H         -6.0580191450       -0.6444110763       -1.8404555495
 O         -4.1267788267       -1.7551774116        0.4573212117
 C         -2.8240329397       -1.9354024930        0.8943970036
 O         -2.6935331297       -2.8079158695        1.7767640996
 O         -1.1949420811        0.5321217074       -1.2009305624
 C         -0.3938723301       -1.3816427381        0.8041347666
 C          0.1992826102       -0.0896316150        1.3103407040
 C         -0.5268506865        0.6652034050        2.2285908331
 C         -0.0222708895        1.8501653581        2.7259985781
 C          1.2188445499        2.3081181199        2.3193201972
 C          1.9579925073        1.5581666732        1.4132464816
 C          1.4509602812        0.3619292520        0.9221013091
 H          2.0378301983       -0.2006489978        0.2159995297
 N          3.2397145367        1.9736327214        1.0269471645
 S          3.8003318627        1.7456864305       -0.5329141806
 O          4.9238596220        2.6546604415       -0.6352008676
 O          2.7626759043        1.9119361685       -1.5217901382
 C          4.4209020535        0.0772908699       -0.5512761981
 C          4.1698317576       -0.7213546105       -1.6490297955
 C          4.6998051365       -2.0021211454       -1.6821822913
 C          5.4676185883       -2.4587870860       -0.6217056190
 C          5.7095473358       -1.6437338172        0.4737958298
 C          5.1866831390       -0.3610971202        0.5110192345
 H          5.3566464521        0.3013490923        1.3430218176
 H          6.3050838027       -2.0038817805        1.2970156697
 H          5.8764781503       -3.4565102514       -0.6495749421
 H          4.5112369336       -2.6365051167       -2.5340532422
 H          3.5560612339       -0.3296410406       -2.4450781018
 H          3.5234956737        2.8707855851        1.3928420120
 H          1.6119304820        3.2384552513        2.7004437230
 H         -0.6007002519        2.4271415412        3.4320303898
 H         -1.4995106817        0.3094827385        2.5416580606
 H         -0.4681036951       -2.0767531690        1.6536837521
 C          0.4266991274       -2.0381021255       -0.2863888266
 C          1.5567280068       -2.9531201820        0.0759208387
 C          0.2919223780       -3.5150396440       -0.4984586799
 H          0.3053271888       -3.8933694612       -1.5095032817
 H         -0.3801902697       -4.0483837962        0.1581998963
 H          2.4435163044       -2.9475953931       -0.5393837164
 H          1.7494155323       -3.1129099059        1.1258849471
 H          0.5301843990       -1.4118511987       -1.1659242810
