  62
        -98.93828126
 C         -1.1815513704       -1.5174814795        0.3610515605
 C         -1.7164286905       -0.5449560789        1.2401512099
 C         -2.8962179604        0.2033316208        0.7760368694
 C         -3.3644248504       -0.0128170600       -0.4668611805
 C         -4.5569212103        0.5672293696       -1.1978023309
 C         -5.2552915603        1.8209105000       -0.6785601618
 C         -4.4143177303        3.0953685599       -0.7453016425
 H         -4.2752424702        3.3664844492       -1.7949880427
 H         -4.9762380203        3.9000220402       -0.2655804931
 C         -3.0291746203        3.0127917103       -0.1077383024
 H         -2.4063387003        2.2985786099       -0.6521124320
 H         -2.5486992603        3.9888271202       -0.2230138730
 C         -3.0107971504        2.6606757512        1.3784843278
 H         -1.9822667604        2.7902305014        1.7272084777
 H         -3.6416730204        3.3609430916        1.9299705173
 C         -3.4449098204        1.2265675015        1.7282592487
 H         -3.0352793505        0.9820699821        2.7128079389
 H         -4.5274222704        1.1471000815        1.7950252287
 H         -5.6208570504        1.6588157806        0.3311953783
 H         -6.1329607903        1.9728418196       -1.3128966819
 H         -4.2158852103        0.7466422689       -2.2225222210
 H         -5.2941780003       -0.2416475504       -1.2548291904
 O         -2.7817419604       -0.9200422405       -1.3028251099
 C         -1.6733661704       -1.6688896303       -0.9349478794
 O         -1.2443377504       -2.4072467909       -1.8409876289
 H          0.7096456896       -0.0177169000       -0.3999518703
 C          1.3769417896       -0.8125742102       -0.6935683798
 C          1.1661930196       -2.0927053099       -0.1986611290
 C          2.0049382596       -3.1121364202       -0.6288460183
 C          3.0186773296       -2.8449726808       -1.5339391484
 C          3.2323988496       -1.5651283811       -2.0119536893
 C          2.3945931597       -0.5382419108       -1.5900640499
 N          2.5588323597        0.7746320789       -2.0517318208
 S          2.0991860097        2.0673883095       -1.1013712616
 O          0.6636340697        2.1971794695       -1.0808270718
 O          2.8239415398        3.1895874591       -1.6601005323
 C          2.7307724896        1.6993799605        0.5267755586
 C          1.8722163796        1.4720484012        1.5822024887
 C          2.4022689595        1.1460159320        2.8207421490
 C          3.7756382695        1.0569773421        2.9832491991
 C          4.6272959496        1.3004166914        1.9159433390
 C          4.1023409896        1.6220267506        0.6754791787
 H          4.7327231897        1.8262684800       -0.1745534114
 H          5.6954360396        1.2356921214        2.0464391090
 H          4.1828350095        0.7980940927        3.9478692093
 H          1.7307835395        0.9529803825        3.6423688591
 H          0.8058749996        1.5384728212        1.4296271787
 H          3.3989176497        0.9527057885       -2.5804192909
 H          4.0247970597       -1.3619165316       -2.7156085294
 H          3.6573934396       -3.6480038010       -1.8690962279
 H          1.8559686295       -4.1185900500       -0.2741986477
 C          0.0581866895       -2.2678179292        0.8112478311
 H          0.3706371995       -1.7336935386        1.7258688707
 C         -0.1760115805       -3.7141773690        1.2214287620
 C         -1.5490745306       -4.2215050587        1.5437528423
 C         -0.8393809605       -4.7085231095        0.3178563426
 H         -0.4678063005       -5.7229442095        0.3117614733
 H         -1.1759883905       -4.3568537901       -0.6442945776
 H         -1.6641406606       -4.8965124782        2.3787368527
 H         -2.3781983105       -3.5406057588        1.4137480218
 H          0.6262334094       -4.0921967486        1.8476336923
 O         -1.2251832505       -0.3069464282        2.3766683498
