  62
        -98.93372465
 C          1.5689395862        1.5019505668       -0.2469293139
 C          0.6740118148        2.0137341439       -1.2173869565
 C         -0.5897976411        2.5924546977       -0.7253846290
 C         -0.8026739585        2.6728081095        0.6011317420
 C         -1.9550996992        3.2436252979        1.4017018188
 C         -3.2361357084        3.6900984083        0.7044210037
 C         -4.0946538188        2.5447093677        0.1620773509
 H         -4.5829599283        2.0523914823        1.0065478063
 H         -4.8751477276        2.9660176118       -0.4744940488
 C         -3.3456080432        1.4646323491       -0.6153377925
 H         -2.5776485933        1.0186452662        0.0193152309
 H         -4.0524210911        0.6658129872       -0.8584931086
 C         -2.7005207618        1.9142429404       -1.9242377082
 H         -3.4649338995        2.3083330062       -2.5979198063
 H         -2.2645228184        1.0256320927       -2.3925353732
 C         -1.5878771373        2.9641816733       -1.7830865288
 H         -1.0360153836        2.9981353975       -2.7274532739
 H         -2.0019383888        3.9545065452       -1.6108528917
 H         -3.8321257618        4.2211801780        1.4512289835
 H         -3.0039458254        4.4072328976       -0.0775692773
 H         -2.2045556380        2.4916247721        2.1568457103
 H         -1.5378368252        4.0992844532        1.9435561413
 O          0.1249860092        2.2334533484        1.5010332076
 C          1.2904202591        1.5821053895        1.1167333322
 O          1.9572408279        1.1451031764        2.0690755534
 H          1.1046156747       -0.9465482130       -1.7250819615
 C          1.6398122449       -1.4003333237       -0.9025964536
 C          2.6387405575       -0.6758939717       -0.2529169217
 C          3.2938926960       -1.2865018763        0.8087943312
 C          2.9572891875       -2.5735945158        1.1963575582
 C          1.9428701851       -3.2699996060        0.5677472796
 C          1.2679765279       -2.6678659874       -0.4883480901
 N          0.2067461377       -3.3244539083       -1.1430225406
 S         -1.2708157515       -2.5477348249       -1.2766586738
 O         -2.1788429756       -3.5738425082       -1.7411360716
 O         -1.1462090874       -1.3817015555       -2.1099367813
 C         -1.7000263171       -2.0889604554        0.3920847065
 C         -1.0945547499       -0.9869400876        0.9616774218
 C         -1.3724205789       -0.6763292877        2.2836286479
 C         -2.2578317010       -1.4610276518        3.0061235281
 C         -2.8658615479       -2.5597396611        2.4173908620
 C         -2.5789376555       -2.8841211643        1.1013551458
 H         -3.0247991999       -3.7300313131        0.6035747203
 H         -3.5561816623       -3.1658967827        2.9815315206
 H         -2.4721979716       -1.2120780265        4.0334727814
 H         -0.8838176796        0.1733426456        2.7358699139
 H         -0.4152612241       -0.3880455147        0.3739421821
 H          0.0606081213       -4.2740358121       -0.8295891232
 H          1.6689632195       -4.2627222154        0.8912857804
 H          3.4825762872       -3.0300443333        2.0215238891
 H          4.0506419747       -0.7635294243        1.3641233430
 C          2.7992747742        0.7453537192       -0.7363586911
 H          2.6724559954        0.7144552916       -1.8310734872
 C          4.0784621565        1.5337187590       -0.5095562233
 C          4.7959273235        1.7045131682        0.7938020551
 C          5.4292046479        0.9138675217       -0.3121803721
 H          6.2675668012        1.3526184658       -0.8328373947
 H          5.4872577941       -0.1586667406       -0.2199927282
 H          5.1970066184        2.6845947687        1.0107252123
 H          4.4022126810        1.2079159032        1.6646144512
 H          4.0569225958        2.4222951069       -1.1373760716
 O          0.9213093733        1.9870960787       -2.4536622102
