  62
        -98.93967429
 C         -2.6535352321       -1.3041423185        0.3433109773
 C         -2.8837646850       -0.5162132080       -0.8112717810
 C         -3.8702461100        0.5669890822       -0.6630844828
 C         -4.4872993955        0.7502554511        0.5174221549
 C         -5.4564307254        1.8550879544        0.8204575460
 C         -4.7334749638        3.0859137066        1.3855555562
 C         -3.5198954739        3.5207960828        0.5638472004
 H         -2.7522533002        2.7455359590        0.6232180792
 H         -3.1098833081        4.4149500067        1.0381756546
 C         -3.8256602103        3.8193385363       -0.9106435080
 H         -3.3250610645        4.7483612956       -1.1916340321
 H         -4.8967362117        3.9761515743       -1.0427106064
 C         -3.3480528507        2.7438828133       -1.8882390138
 H         -2.2950653486        2.5193808699       -1.6991377169
 H         -3.4179832212        3.1494894458       -2.9011971991
 C         -4.1334644962        1.4263038905       -1.8681471769
 H         -3.8144617583        0.8370390742       -2.7330769474
 H         -5.2008487529        1.6327305367       -1.9685699914
 H         -4.3955130306        2.8541203325        2.3981752838
 H         -5.4482799801        3.9085438649        1.4453578880
 H         -5.9938141986        2.1206411150       -0.0878241404
 H         -6.1703799784        1.4922432141        1.5616497370
 O         -4.2530839990       -0.0343385037        1.5994499034
 C         -3.3339427550       -1.0665039245        1.5422310479
 O         -3.2155277952       -1.7027478127        2.6080531656
 H         -0.2848024345       -0.5396950219       -0.9176569507
 C          0.2922084971       -0.9705121567       -0.1123863642
 C         -0.2689937362       -1.9789691399        0.6591314594
 C          0.4921319806       -2.5365941212        1.6792928877
 C          1.7807830715       -2.0916877590        1.9188675745
 C          2.3346321264       -1.0838143426        1.1500048211
 C          1.5834751206       -0.5217468108        0.1257712021
 N          2.1283245167        0.5117588009       -0.6553332254
 S          3.6612642393        0.2949415659       -1.3043382561
 O          3.7079400155        1.1555518604       -2.4657115748
 O          3.9479440245       -1.1032815760       -1.5276272578
 C          4.7462472235        0.9506212696       -0.0540258151
 C          5.7844752418        0.1807345004        0.4324179532
 C          6.6216747036        0.7181460621        1.3979868138
 C          6.4073971030        2.0088578669        1.8565173443
 C          5.3615541282        2.7699798883        1.3556666574
 C          4.5219115182        2.2391976610        0.3896662546
 H          3.7002148776        2.7976965755       -0.0268172192
 H          5.1978128680        3.7733681029        1.7145422532
 H          7.0591728892        2.4244916735        2.6086566106
 H          7.4353943935        0.1284209654        1.7884380224
 H          5.9092634342       -0.8199818879        0.0503404936
 H          1.4910822217        0.8609270053       -1.3568452935
 H          3.3376931449       -0.7342586124        1.3321767739
 H          2.3604932601       -2.5329944584        2.7150762630
 H          0.0631638490       -3.3162731542        2.2916577091
 C         -1.6690928194       -2.4628184491        0.3799899625
 H         -1.9838694389       -3.0757936135        1.2388748436
 C         -1.7541853448       -3.3469574440       -0.8587375568
 C         -0.6580419359       -3.4806365831       -1.8691305230
 C         -0.9493035664       -4.6108056883       -0.9309664772
 H         -1.4168348202       -5.5029039200       -1.3190934888
 H         -0.2395182007       -4.7916439275       -0.1376508771
 H          0.2527126030       -2.9198401371       -1.7246250898
 H         -0.9445835040       -3.5753665621       -2.9056952756
 H         -2.7662373258       -3.3963176049       -1.2478842956
 O         -2.3036174371       -0.6834453503       -1.9164978241
