  62
        -98.94117249
 C          1.9688300832        0.9236600519       -0.2140508297
 C          2.4721610983        0.2455627289        0.9263431606
 C          2.6999569659       -1.1968493032        0.7904141670
 C          2.3834248558       -1.7998000421       -0.3694407874
 C          2.5799883407       -3.2592370930       -0.6607315362
 C          3.9556631689       -3.5251884903       -1.2878600203
 C          5.1138399313       -2.8753595565       -0.5308152300
 H          6.0357633869       -3.1538862479       -1.0456340106
 H          5.0194117660       -1.7895578001       -0.6030692676
 C          5.2106762900       -3.2777232585        0.9473488023
 H          4.6354719190       -4.1875794420        1.1216812888
 H          6.2533234829       -3.5021125191        1.1814839544
 C          4.7562857220       -2.1963113872        1.9293873877
 H          5.2600235793       -1.2550149896        1.6964584710
 H          5.0686050019       -2.4956226080        2.9333136721
 C          3.2458235147       -1.9330538625        1.9818244366
 H          2.7113674099       -2.8742905645        2.1276570295
 H          3.0482899501       -1.2898402636        2.8444031477
 H          4.1092159959       -4.6047432079       -1.3367679314
 H          3.9507115137       -3.1351901393       -2.3083043472
 H          2.4737515013       -3.8229823950        0.2643155216
 H          1.8012819315       -3.5747655637       -1.3576217527
 O          1.8867514418       -1.1273619343       -1.4364258599
 C          1.6573696221        0.2423127278       -1.3913650082
 O          1.1992373611        0.6983713215       -2.4580794837
 H         -0.6278772760        1.2033779260       -0.8134090349
 C         -0.7735857684        1.8852903271        0.0111011325
 C          0.2966177350        2.6016367138        0.5256096562
 C          0.0658803168        3.4847562078        1.5740742330
 C         -1.2028993317        3.6307754578        2.1055963296
 C         -2.2580897129        2.8791712242        1.6216475778
 C         -2.0382650983        1.9983647268        0.5684810601
 N         -3.0795887811        1.2125032230        0.0504636160
 S         -2.7045988767       -0.3676341288       -0.4252648386
 O         -1.7019046282       -0.9263392667        0.4537567050
 O         -2.4099853499       -0.3695437207       -1.8358846664
 C         -4.2765601316       -1.1665386515       -0.1492726547
 C         -5.2540361995       -1.0720312301       -1.1220160325
 C         -6.4871440413       -1.6613627469       -0.8918364933
 C         -6.7219876762       -2.3296069651        0.3007663169
 C         -5.7308686358       -2.4177247915        1.2667735000
 C         -4.4955970622       -1.8297969670        1.0433028993
 H         -3.6914878443       -1.8787102882        1.7601128811
 H         -5.9142139805       -2.9409444568        2.1913491762
 H         -7.6823402091       -2.7875010010        0.4772227896
 H         -7.2585757696       -1.5975974985       -1.6420544692
 H         -5.0205835130       -0.5505406360       -2.0356828663
 H         -3.9194308951        1.2466506816        0.6124403655
 H         -3.2428802717        2.9692566706        2.0541611722
 H         -1.3677196398        4.3190934815        2.9204081964
 H          0.8934699927        4.0420879115        1.9865841999
 C          1.6882573104        2.4049266468       -0.0321802092
 H          2.3996376341        2.7471459957        0.7332437178
 C          1.8794399658        3.2508280556       -1.2745485746
 C          2.2211344996        4.7023156346       -1.1262956160
 C          3.2508246748        3.7374371502       -1.6307819169
 H          3.5282126463        3.7678854167       -2.6734560221
 H          4.0622223993        3.4659133732       -0.9711817372
 H          2.3415141935        5.0910508837       -0.1267554377
 H          1.7887135984        5.4037268695       -1.8228423512
 H          1.2259983118        2.9661997427       -2.0889996009
 O          2.7252279456        0.8319180731        2.0145325671
