  62
        -98.93963124
 C          2.2788386800        0.5851242796       -0.2329984339
 C          3.3741326601        0.6840044406        0.6668804030
 C          4.1591802065       -0.5368530327        0.8834156095
 C          3.8034376294       -1.6654172302        0.2436390135
 C          4.5371365587       -2.9715094658        0.3310898712
 C          5.6075073376       -3.0854425456       -0.7634680797
 C          6.5158734137       -1.8605670539       -0.8696624606
 H          7.2493534191       -2.0664947348       -1.6522381490
 H          5.9232587815       -1.0051729961       -1.2021137899
 C          7.2449248207       -1.4959359256        0.4310891191
 H          7.2358083349       -2.3473533512        1.1125387932
 H          8.2894062749       -1.2785498837        0.1980515553
 C          6.6837255514       -0.2670722695        1.1489458233
 H          6.6016553781        0.5638023182        0.4436998134
 H          7.3967371511        0.0301845299        1.9225254141
 C          5.3229074775       -0.4567609582        1.8309093809
 H          5.3544323409       -1.3373999343        2.4757252256
 H          5.1391679743        0.4212768009        2.4568797773
 H          6.2114721173       -3.9723993503       -0.5636515094
 H          5.1070103016       -3.2243408422       -1.7245089524
 H          4.9971194087       -3.0568753376        1.3137203416
 H          3.8149472938       -3.7800025287        0.2060734594
 O          2.7442377282       -1.7283658368       -0.5997053325
 C          1.9583579730       -0.6161247846       -0.8650333685
 O          1.0310712246       -0.8518271927       -1.6667069415
 H         -0.6720105133        0.2218536930       -0.7424636779
 C         -0.8192369327        0.9437695795        0.0475183351
 C          0.1923096998        1.8493561516        0.3347152982
 C         -0.0068987858        2.7599176662        1.3656410455
 C         -1.1873958983        2.7595588363        2.0882519119
 C         -2.1902790696        1.8502246983        1.8037236802
 C         -2.0000014466        0.9347610351        0.7766402311
 N         -2.9975629614       -0.0265218114        0.4920549784
 S         -4.5030865152        0.5470676274       -0.0167552217
 O         -4.4069063555        1.0933142795       -1.3546008343
 O         -5.0274086006        1.4320919763        0.9910840665
 C         -5.4348294398       -0.9703246121       -0.0402902605
 C         -5.6247282756       -1.6351715518       -1.2359390029
 C         -6.3243767827       -2.8318041271       -1.2337195437
 C         -6.8158543664       -3.3412858020       -0.0415074386
 C         -6.6167669581       -2.6617808482        1.1512740398
 C         -5.9190556640       -1.4647090890        1.1554053148
 H         -5.7463437025       -0.8992355176        2.0559983747
 H         -7.0025950494       -3.0607082260        2.0755394839
 H         -7.3593875471       -4.2729202111       -0.0426785513
 H         -6.4822925629       -3.3608756407       -2.1598215960
 H         -5.2312653793       -1.1987554467       -2.1401781418
 H         -2.6662697687       -0.6818837729       -0.2056657137
 H         -3.1172198898        1.8487594019        2.3526353782
 H         -1.3275223791        3.4733879111        2.8859507246
 H          0.7766710442        3.4640885531        1.6057395380
 C          1.4752459385        1.8546696227       -0.4630965745
 H          2.1053411054        2.6640321526       -0.0701811948
 C          1.1997288566        2.1332668989       -1.9280792873
 C          0.8736556309        3.5326400269       -2.3522617320
 C          2.1914749708        2.9237724043       -2.7250645751
 H          2.3620123301        2.6475289953       -3.7547605159
 H          3.0766420804        3.2743124247       -2.2145215200
 H          0.1337588748        3.6763056994       -3.1247821719
 H          0.8655100713        4.2969671479       -1.5898516557
 H          0.6902807349        1.3237437607       -2.4344780433
 O          3.6824552043        1.7523141771        1.2591900180
