  62
        -98.94785016
 C         -1.0136868090       -0.9533126075        0.7210968790
 C         -1.6632544877       -0.8521039251       -0.5324837706
 C         -2.3400546029        0.4230972520       -0.7970360637
 C         -2.2534256890        1.4250767480        0.0953993334
 C         -2.8529764046        2.7977334148       -0.0518911912
 C         -4.3313100838        2.8832238851        0.3526432851
 C         -5.3133355797        2.2305316452       -0.6208336913
 H         -6.3147210387        2.5547340795       -0.3306805441
 H         -5.1281659770        2.6062300322       -1.6276675655
 C         -5.2738290643        0.6960626600       -0.6271277843
 H         -6.2933579627        0.3053428645       -0.5979276519
 H         -4.7674994699        0.3406578136        0.2730948508
 C         -4.5898245744        0.0854444921       -1.8503709177
 H         -5.1619752507        0.3254298086       -2.7493679487
 H         -4.5841514073       -1.0013150545       -1.7346548244
 C         -3.1408647732        0.5460673451       -2.0572945802
 H         -2.6741190082       -0.0984434775       -2.8067195446
 H         -3.1177481746        1.5725892181       -2.4239992850
 H         -4.4480082112        2.4355390872        1.3421352998
 H         -4.5847960317        3.9427268594        0.4340550760
 H         -2.2798465970        3.4604235242        0.6006608741
 H         -2.7319248593        3.1386848028       -1.0809976097
 O         -1.5671464191        1.3086299125        1.2639199121
 C         -0.9393377477        0.1202677078        1.6066308456
 O         -0.3514523428        0.1494181345        2.7069277707
 O         -1.6823827304       -1.7772806897       -1.3861459953
 C         -0.2594240734       -2.2208522723        1.0843863440
 C          0.8452134738       -2.4269624352        0.0756527812
 C          1.1116124963       -3.6356682770       -0.5526888207
 C          2.1152942694       -3.7195619337       -1.5031060190
 C          2.8571223813       -2.6071794078       -1.8557197839
 C          2.6078119829       -1.3959531591       -1.2192850194
 C          1.6290509794       -1.3253408542       -0.2436539268
 H          1.4392919614       -0.3843755936        0.2519159500
 N          3.3424603276       -0.2422534070       -1.5297282109
 S          2.6084491962        1.2591016107       -1.4451536583
 O          1.2199057714        1.2142006740       -1.8416654754
 O          3.4634930930        2.1148251757       -2.2430924296
 C          2.7607052672        1.7334143026        0.2630394588
 C          3.9521278439        1.4945524178        0.9188396087
 C          4.0741195196        1.8836172998        2.2428541810
 C          3.0115992587        2.5031209249        2.8834414491
 C          1.8248250939        2.7423262462        2.2089353638
 C          1.6977511777        2.3568582474        0.8844159912
 H          0.7847939697        2.5075144406        0.3283915149
 H          0.9923389766        3.2107083598        2.7088653276
 H          3.1044922074        2.7985391621        3.9165674306
 H          4.9943073612        1.6984791287        2.7733536714
 H          4.7533019958        1.0061541124        0.3897437088
 H          3.9625075232       -0.3234958592       -2.3222250613
 H          3.6183748943       -2.6699506320       -2.6182304754
 H          2.3094624384       -4.6624824203       -1.9915408077
 H          0.5257977947       -4.5072915405       -0.3111177297
 H          0.2018521452       -2.0312072013        2.0647931564
 C         -1.2045195242       -3.3969435335        1.2041294614
 C         -0.8746543625       -4.5393203159        2.1160194958
 C         -1.9695952328       -3.5829757630        2.4788365667
 H         -2.9932612347       -3.9212104091        2.4210126457
 H         -1.7887211276       -2.8730746889        3.2730119066
 H         -1.1492304642       -5.5380826393        1.8118486975
 H          0.0489161435       -4.4843557656        2.6720196034
 H         -1.7197720659       -3.6123284654        0.2752636859
