  62
        -98.94252706
 C          1.0214200518        1.3446260579        0.6885130669
 C          1.6150336050        1.0036395703       -0.5538029236
 C          2.4754956139       -0.1918100769       -0.5381721018
 C          2.6549477939       -0.8858628192        0.5986091812
 C          3.4752452126       -2.1373061791        0.7575965672
 C          4.9755277759       -1.8806066995        0.9552762704
 C          5.7280885168       -1.4150094333       -0.2918510536
 H          6.7943424290       -1.4879453969       -0.0686078384
 H          5.5206855648       -2.0979165766       -1.1163621388
 C          5.4125415893        0.0242711319       -0.7225774278
 H          6.3431231694        0.5484244617       -0.9514922926
 H          4.9397601800        0.5574073205        0.1054794197
 C          4.5161346085        0.1347334805       -1.9563485593
 H          4.3253002562        1.1933426313       -2.1504305223
 H          5.0337141162       -0.2780141272       -2.8252921701
 C          3.1616003220       -0.5712700839       -1.8150268451
 H          2.5169576438       -0.2597020959       -2.6415152760
 H          3.2916901324       -1.6524840246       -1.8699592598
 H          5.4236801216       -2.8175366567        1.2937792936
 H          5.1016934569       -1.1442432745        1.7521989473
 H          3.0951181231       -2.6489483856        1.6444274573
 H          3.3244568891       -2.7852467819       -0.1066880598
 O          2.0700911642       -0.5239358925        1.7718026847
 C          1.2463537766        0.5891096074        1.8419948131
 O          0.7796948450        0.8029535318        2.9783656565
 H         -0.9538595917        0.8850250120       -1.0625932399
 C         -1.7042811503        1.2027550951       -0.3553208578
 C         -1.3628195433        2.0448481599        0.6940553711
 C         -2.3574155365        2.4476295375        1.5779830364
 C         -3.6635233188        2.0244668771        1.4090291223
 C         -3.9974968529        1.1757942486        0.3692084870
 C         -3.0092333713        0.7594321497       -0.5153452974
 N         -3.3131560929       -0.1148005369       -1.5746963552
 S         -2.3521981755       -1.4706965717       -1.7829235171
 O         -1.0843384696       -1.1125504336       -2.3606369730
 O         -3.1744816077       -2.3738785412       -2.5595494389
 C         -2.1353608008       -2.1121044102       -0.1337490794
 C         -3.1906628506       -2.7830524536        0.4532591658
 C         -3.0588832467       -3.2273362199        1.7584186779
 C         -1.8839385334       -2.9848606903        2.4543129607
 C         -0.8327188981       -2.3131473756        1.8501855574
 C         -0.9576941748       -1.8712531887        0.5424916875
 H         -0.1600123535       -1.3455403155        0.0400914345
 H          0.0777709117       -2.1123960794        2.3929099444
 H         -1.7818830830       -3.3213486669        3.4739057122
 H         -3.8708611320       -3.7554587429        2.2315533490
 H         -4.0831257797       -2.9590096053       -0.1250921218
 H         -4.2897284526       -0.3681665681       -1.6309965146
 H         -5.0137557408        0.8361838476        0.2403060565
 H         -4.4267266560        2.3480014016        2.0998782936
 H         -2.0972071620        3.0869088425        2.4085892760
 C          0.0616774627        2.5084772251        0.8720074028
 H          0.1744102632        2.8182931860        1.9237365901
 C          0.3956569270        3.7170353779        0.0089828984
 C         -0.3972009763        4.1105186798       -1.1969842477
 C         -0.4779945232        4.9360436659        0.0498266458
 H         -0.0072101040        5.9074006391        0.0591797970
 H         -1.3887682537        4.8788973674        0.6262203757
 H         -1.2465790191        3.5026455230       -1.4681715537
 H          0.1451442394        4.4944606216       -2.0475015306
 H          1.4657938869        3.8882570761       -0.0461361778
 O          1.4546556323        1.6411798992       -1.6243943181
