  62
        -98.94473053
 C         -1.5158396141       -1.7636078764       -0.4699689519
 C         -1.5418194671       -0.5879477631       -1.2613894668
 C         -2.7465287813        0.2490801035       -1.1290323392
 C         -3.7238867151       -0.1173144222       -0.2826413203
 C         -4.9747921751        0.6681110562       -0.0169898838
 C         -4.7909593924        1.6343751566        1.1608828571
 C         -3.5337176721        2.4996695164        1.0667849573
 H         -3.5383659633        3.1745818868        1.9260511008
 H         -2.6453873509        1.8706312189        1.1660187912
 C         -3.4194192738        3.3201002641       -0.2252696527
 H         -4.3958329321        3.3974393952       -0.7064883282
 H         -3.1013301293        4.3324457701        0.0330357577
 C         -2.3960524527        2.7747275779       -1.2230614846
 H         -2.2100121608        3.5453463867       -1.9766978502
 H         -1.4534109338        2.5888896494       -0.7014987607
 C         -2.8089138812        1.4965215581       -1.9647328251
 H         -3.8063542387        1.6246856306       -2.3916645774
 H         -2.1004939976        1.3449168126       -2.7845859765
 H         -5.6712612978        2.2777638279        1.2184154844
 H         -4.7354898457        1.0509070022        2.0829652780
 H         -5.2470148093        1.2211211502       -0.9140011572
 H         -5.7753217450       -0.0339422273        0.2235459205
 O         -3.6641498582       -1.2493558019        0.4657070170
 C         -2.5607162264       -2.0823642036        0.4010851799
 O         -2.6296723785       -3.0794031230        1.1495771804
 O         -0.6278290429       -0.2386902500       -2.0507125868
 C         -0.3476628863       -2.7363456933       -0.4449056222
 C          0.6282871045       -2.3736687998        0.6479494807
 C          1.2516942242       -3.3571219994        1.4076852835
 C          2.1461773382       -3.0099678216        2.4047246574
 C          2.4270020835       -1.6821357003        2.6698898079
 C          1.7932707707       -0.6886065796        1.9291378788
 C          0.9133277282       -1.0433368539        0.9169905139
 H          0.4195399653       -0.2687653996        0.3555402382
 N          2.0136391094        0.6581153894        2.2233545812
 S          1.6938451312        1.9326743390        1.1985228526
 O          2.1932430729        3.0803093964        1.9267738205
 O          0.2973333357        1.9636714744        0.8499727941
 C          2.7310786939        1.6665499586       -0.2267752115
 C          2.2129480991        1.2217899807       -1.4248655229
 C          3.0796703075        1.0265172045       -2.4909108322
 C          4.4350873617        1.2698684990       -2.3429218153
 C          4.9395637173        1.7164953933       -1.1300670611
 C          4.0813032647        1.9180092539       -0.0631858576
 H          4.4279043332        2.2847607751        0.8893095930
 H          5.9942221454        1.9087776966       -1.0157349191
 H          5.1009399773        1.1130150418       -3.1768763362
 H          2.6796123481        0.6804055168       -3.4303121914
 H          1.1575396472        1.0209775962       -1.5267642595
 H          2.7403065641        0.8570061677        2.8922185124
 H          3.1136693046       -1.4113929638        3.4570757479
 H          2.6252077157       -3.7816166521        2.9880005359
 H          1.0145343347       -4.3956300747        1.2294464013
 H         -0.7859689766       -3.7118880104       -0.1775066742
 C          0.3289071934       -2.8987179994       -1.7995126895
 C          1.6748090040       -2.3272374152       -2.1159283790
 C          1.5127271150       -3.8070681763       -1.9559285414
 H          1.5660916310       -4.4321437614       -2.8343958797
 H          1.9197728262       -4.2601770368       -1.0654256689
 H          1.8251247487       -1.9221913184       -3.1041721347
 H          2.1884092410       -1.7795454374       -1.3406068271
 H         -0.3937135931       -2.9021193841       -2.6087855291
