  62
        -98.94393283
 C         -1.7881921724       -0.6411233524        0.5637902804
 C         -3.0628115495       -0.6094754143        1.1781137672
 C         -4.2107178021       -0.5326499728        0.2678140031
 C         -4.0077734933       -0.5219114790       -1.0624158195
 C         -5.0770730309       -0.4744341245       -2.1199942230
 C         -5.5805417134        0.9403905034       -2.4368014239
 C         -6.4606418986        1.5742027969       -1.3587289718
 H         -6.9163568534        2.4633586175       -1.7990562239
 H         -7.2685281475        0.8885946085       -1.1010189203
 C         -5.7062435775        1.9854269403       -0.0865782917
 H         -4.6348431334        2.0271646181       -0.2967435871
 H         -6.0123283356        2.9914074240        0.2095757316
 C         -5.9406645928        1.0688220108        1.1143531217
 H         -6.9888329661        1.1227593223        1.4167735900
 H         -5.3317318304        1.4318227632        1.9464947379
 C         -5.5780678681       -0.4015620863        0.8674997598
 H         -6.3234070899       -0.8699174712        0.2250006301
 H         -5.5703225268       -0.9186815667        1.8302104626
 H         -6.1612892845        0.8805615580       -3.3601930768
 H         -4.7185472272        1.5838271970       -2.6283285464
 H         -4.6356443588       -0.8930346936       -3.0270166695
 H         -5.9171243699       -1.1019193873       -1.8208537401
 O         -2.7671325226       -0.5754283173       -1.6145627398
 C         -1.6276625515       -0.6152918543       -0.8219512462
 O         -0.5608544583       -0.6294646708       -1.4616230287
 O         -3.2314445878       -0.6440660885        2.4271148614
 C         -0.5567355941       -0.7126847123        1.4446376373
 C          0.3605967920        0.4657776474        1.2251381258
 C         -0.1603943774        1.7114470019        0.8887099509
 C          0.6695240728        2.7940763129        0.6648009019
 C          2.0419479840        2.6656059784        0.7879265693
 C          2.5713580878        1.4367834644        1.1522395206
 C          1.7361624904        0.3479312921        1.3692098879
 H          2.1686598119       -0.6017700074        1.6452188504
 N          3.9752414744        1.3095896315        1.2749900735
 S          4.8145705177        1.2335622632       -0.1755440081
 O          6.2111097415        1.1218769646        0.1789799291
 O          4.4429984541        2.3660818559       -0.9825124471
 C          4.2550313652       -0.2894029020       -0.9152074855
 C          3.0030282126       -0.3244106053       -1.4954384582
 C          2.5149793388       -1.5335850135       -1.9657476767
 C          3.2878102140       -2.6790886021       -1.8531808666
 C          4.5484511881       -2.6261902456       -1.2761111893
 C          5.0349070171       -1.4231638446       -0.7915514936
 H          6.0041052608       -1.3371549022       -0.3270010641
 H          5.1465224123       -3.5197144719       -1.1945358854
 H          2.9019055579       -3.6190529146       -2.2161437448
 H          1.5218296119       -1.5637242964       -2.3854956319
 H          2.4173264076        0.5773383966       -1.5720155898
 H          4.2534426827        0.5249675477        1.8493793192
 H          2.7067903386        3.4911868320        0.5942595448
 H          0.2438917625        3.7478082308        0.3907522710
 H         -1.2318436382        1.8217421004        0.7910960756
 H         -0.9363958187       -0.6620755089        2.4769508659
 C          0.1468287238       -2.0421989429        1.2484982544
 C          0.8072407972       -2.7382221775        2.4002907458
 C         -0.4688383510       -3.2781265878        1.8300170897
 H         -0.4353624090       -4.1913494606        1.2555097990
 H         -1.3772176730       -3.1555332063        2.4019163009
 H          1.7196279008       -3.2860459802        2.2169912127
 H          0.7626830526       -2.2621033174        3.3684706535
 H          0.6067661395       -2.1250492801        0.2699558071
