  62
        -98.93912437
 C          2.4705205303        1.0432118898        0.3653414696
 C          2.5961227600       -0.1581130503        1.1126705095
 C          3.8471691500       -0.9086395305        0.9479544996
 C          4.8009679201       -0.4196298105        0.1350217697
 C          6.1104948300       -1.0913004107       -0.1585593203
 C          6.0056568700       -2.0008323206       -1.3904694804
 C          4.8058369098       -2.9474972204       -1.3572285605
 H          3.8857217399       -2.3609360903       -1.4142473506
 H          4.8507718898       -3.5622186703       -2.2588021906
 C          4.7493913096       -3.8563249305       -0.1213584606
 H          4.5076528295       -4.8713106704       -0.4435522107
 H          5.7285840196       -3.8926542907        0.3573137294
 C          3.6958108796       -3.4561315204        0.9135677793
 H          3.5901501895       -4.2781105305        1.6268447393
 H          2.7277794597       -3.3251160403        0.4222858793
 C          4.0004951397       -2.1880283806        1.7212611495
 H          5.0007427997       -2.2589113507        2.1538808995
 H          3.2752302297       -2.1324328605        2.5385583394
 H          6.9267973799       -2.5807557307       -1.4707873504
 H          5.9203688201       -1.3715502305       -2.2791876203
 H          6.8565588401       -0.3184389508       -0.3505525802
 H          6.4166910999       -1.6711783708        0.7099045997
 O          4.6552219103        0.7383071096       -0.5526435902
 C          3.4926534404        1.4924010397       -0.4720686803
 O          3.5214469606        2.5139626098       -1.1856778702
 O          1.7012390299       -0.5781062503        1.8969600294
 C          1.1803895203        1.8226978499        0.5494176396
 C          0.1838199804        1.5740854102       -0.5585646705
 C          0.4945679805        1.8266359202       -1.8905131204
 C         -0.4482136694        1.6121789304       -2.8791955605
 C         -1.7135858295        1.1519789806       -2.5616083207
 C         -2.0394279696        0.9092349805       -1.2317311907
 C         -1.0879538497        1.1168975003       -0.2427321606
 H         -1.3443698298        0.9039249102        0.7841374293
 N         -3.3390169397        0.5018784007       -0.8868304208
 S         -3.5976009600       -0.4928671194        0.4501991291
 O         -3.4411818499        0.2890805904        1.6504525291
 O         -2.7937067301       -1.6905328595        0.3467038190
 C         -5.3218108700       -0.8774208892        0.2086691289
 C         -5.6816096501       -2.0855261491       -0.3574826212
 C         -7.0255864001       -2.3551070889       -0.5643576514
 C         -7.9810910700       -1.4160060488       -0.2066042713
 C         -7.6046240999       -0.2078609689        0.3615981388
 C         -6.2630611099        0.0672323309        0.5724624189
 H         -5.9235061898        0.9873726208        1.0185222590
 H         -8.3504778198        0.5186801212        0.6409343388
 H         -9.0260371600       -1.6281102786       -0.3689269214
 H         -7.3214391402       -3.2947280388       -1.0024062615
 H         -4.9046134502       -2.7884251192       -0.6120667212
 H         -3.8703410797        0.1813873908       -1.6852291309
 H         -2.4471300895        0.9875437407       -3.3362866107
 H         -0.1935167193        1.8047656405       -3.9105841005
 H          1.4800509606        2.1875099701       -2.1411455803
 H          0.7404750602        1.4289660399        1.4767497395
 C          1.3931142005        3.3155135299        0.7206223897
 C          0.3305755506        4.1229091900        1.4010760197
 C          1.6375903605        3.8704307797        2.0899296298
 H          2.3338064406        4.6886039196        2.1965682199
 H          1.6524490604        3.1734954597        2.9156224098
 H          0.1262122308        5.1170748400        1.0346571798
 H         -0.5423008695        3.5975469201        1.7600042996
 H          1.9240364707        3.7704444199       -0.1052807702
