  62
        -98.94064468
 C         -1.5984009793        0.5742021938       -0.7734566222
 C         -2.9561802733        0.6942054058       -1.1700655672
 C         -3.9476518392        0.7435398366       -0.0906185405
 C         -3.5427738436        0.6634545142        1.1893867815
 C         -4.4290149168        0.7178525181        2.4040877489
 C         -5.0573482457       -0.6315055119        2.7782732197
 C         -6.1708013840       -1.1116760415        1.8464354500
 H         -6.6646448674       -1.9492564253        2.3431478977
 H         -6.9116431677       -0.3200940518        1.7294744440
 C         -5.6855594860       -1.5739593493        0.4653018838
 H         -6.1641146163       -2.5221856250        0.2099872919
 H         -4.6092928695       -1.7597179953        0.5009760081
 C         -5.9831302155       -0.5959426096       -0.6714569851
 H         -5.5642979603       -1.0056053637       -1.5941517921
 H         -7.0636224067       -0.5058685396       -0.8034235777
 C         -5.3970023959        0.8072715642       -0.4676782868
 H         -5.4721736349        1.3501327312       -1.4130544045
 H         -5.9642917888        1.3453111614        0.2914759993
 H         -4.2668501756       -1.3847430754        2.8210599848
 H         -5.4729148718       -0.5296952361        3.7835273183
 H         -5.2158941080        1.4570810098        2.2511785306
 H         -3.7993145971        1.0454293950        3.2341882648
 O         -2.2347100520        0.5376620694        1.5321090904
 C         -1.2319442423        0.4632869104        0.5692625422
 O         -0.0936903385        0.3166045930        1.0487511007
 O         -3.3229980517        0.7571595808       -2.3734616943
 C         -0.5606028400        0.4774322687       -1.8783460548
 C          0.2677961322       -0.7692229563       -1.7008566675
 C         -0.3091310027       -1.9964992031       -2.0177075422
 C          0.4063015738       -3.1705952108       -1.8889597809
 C          1.7118865725       -3.1413291883       -1.4319525889
 C          2.2929937168       -1.9254434381       -1.0959927241
 C          1.5744542613       -0.7451396306       -1.2364246726
 H          2.0339145706        0.1911844885       -0.9656110053
 N          3.6262496446       -1.8705087187       -0.6390135277
 S          3.8913293214       -1.3292127640        0.9348766179
 O          5.1835629135       -1.8884536652        1.2828202277
 O          2.7989131518       -1.6899994527        1.8071719331
 C          4.0667706755        0.4345643425        0.7977323986
 C          5.2186061182        0.9187527340        0.2076144160
 C          5.4033314688        2.2888300572        0.1249826263
 C          4.4423517728        3.1453948359        0.6417599734
 C          3.2926260702        2.6413043314        1.2298668277
 C          3.0943238225        1.2705273558        1.3071887388
 H          2.1982804851        0.8415909598        1.7281094249
 H          2.5428184777        3.3073508656        1.6268836191
 H          4.5881367715        4.2129192596        0.5857357758
 H          6.2941776095        2.6849033657       -0.3352596259
 H          5.9469186011        0.2157896094       -0.1610790236
 H          4.1214516446       -2.7440968770       -0.7609228978
 H          2.2780693654       -4.0553589106       -1.3277798166
 H         -0.0529836121       -4.1140714129       -2.1433742648
 H         -1.3316592984       -2.0160982049       -2.3700666990
 H         -1.1627579459        0.3449235538       -2.7928375294
 C          0.2738654361        1.7286176772       -2.1003873952
 C         -0.3609073813        3.0840179937       -2.0099829434
 C          0.6704729712        2.6698577771       -1.0058910670
 H          1.6497341106        3.1224198914       -1.0600632979
 H          0.3520496307        2.4405758396       -0.0021517386
 H         -0.0975684661        3.8288040594       -2.7455437150
 H         -1.3930282236        3.1263611248       -1.6930210064
 H          0.9953603925        1.5868705866       -2.8994747763
