  62
        -98.93948375
 C         -2.1353676896       -1.2806410272        0.2132295449
 C         -1.8038246351       -0.2933084015       -0.7425604439
 C         -2.5681538636        0.9709830813       -0.6835658834
 C         -3.5358550539        1.1029053725        0.2426495557
 C         -4.4174746993        2.2947080394        0.5079389821
 C         -3.6855959498        3.4207976947        1.2557599545
 C         -2.2842962258        3.7317021590        0.7358956873
 H         -1.6738872144        2.8278807014        0.7896465552
 H         -1.8333571798        4.4644149613        1.4107735203
 C         -2.2270130329        4.3016019657       -0.6796025315
 H         -1.1849953801        4.5648643898       -0.8798996950
 H         -2.8138994281        5.2219015784       -0.7175135346
 C         -2.7061640726        3.3704146692       -1.7957342747
 H         -2.3758878868        3.8046379312       -2.7437372095
 H         -3.7912588989        3.3309062829       -1.8363903964
 C         -2.1276606191        1.9604336696       -1.7357446734
 H         -1.0374026398        2.0291328501       -1.6460322912
 H         -2.3097433493        1.4660361477       -2.6972543798
 H         -3.5943166552        3.1271510304        2.3046508447
 H         -4.3002827901        4.3213353890        1.2114663424
 H         -4.8418479198        2.6601691538       -0.4223716603
 H         -5.2408280496        1.9417195015        1.1329111231
 O         -3.8256237228        0.1157803483        1.1395125759
 C         -3.1382659310       -1.0829554590        1.1596070578
 O         -3.5012840880       -1.8749548783        2.0539610092
 H         -0.1466569499       -0.7081821715        1.6595867250
 C          0.5669391627       -1.3380954546        1.1418173527
 C          0.1024345878       -2.3758880390        0.3446441660
 C          1.0352679055       -3.1744104452       -0.3059571233
 C          2.3909508023       -2.9333794087       -0.1622805242
 C          2.8477668357       -1.8874667940        0.6179695718
 C          1.9230343185       -1.0788541743        1.2667199754
 N          2.3706814969        0.0109329440        2.0316272027
 S          3.5922433266        0.9633570447        1.3947363655
 O          4.8708850605        0.3977060513        1.7502282615
 O          3.3361422407        2.2932974181        1.9044731179
 C          3.4008119249        0.9231823703       -0.3797094835
 C          4.4951440051        0.6211780584       -1.1650841376
 C          4.3435316589        0.5840295474       -2.5416709179
 C          3.1030642341        0.8377811959       -3.1056860922
 C          2.0136289495        1.1413993216       -2.3040380403
 C          2.1627993702        1.1918351395       -0.9281370963
 H          1.3255953401        1.4194723432       -0.2868206271
 H          1.0412862179        1.3108892698       -2.7375740512
 H          2.9798230020        0.7958523204       -4.1763441692
 H          5.1891630615        0.3493389393       -3.1679128992
 H          5.4365659647        0.4148110154       -0.6820661743
 H          1.6277875143        0.5800496532        2.4094441144
 H          3.8997730448       -1.6836209679        0.7373257336
 H          3.1025738166       -3.5645740708       -0.6717533866
 H          0.6995636417       -3.9864592931       -0.9295380859
 C         -1.3867359768       -2.5997623874        0.2302250582
 H         -1.7232738098       -3.1286756741        1.1346761167
 C         -1.7700547683       -3.4225879729       -0.9842469421
 C         -1.8457490812       -4.9166950357       -0.8998373086
 C         -3.1027602219       -4.1070588855       -0.9973749494
 H         -3.6639030250       -4.1291582575       -1.9195259003
 H         -3.7185899990       -4.0055769117       -0.1151163378
 H         -1.6158148890       -5.3782463603        0.0487106620
 H         -1.5464420965       -5.4981080708       -1.7589132642
 H         -1.4269558592       -2.9766343463       -1.9106954567
 O         -0.9014057143       -0.4432523725       -1.6051916040
