  62
        -98.94402365
 C         -2.2072545297       -1.2499545136       -0.1678411477
 C         -2.6157392600       -0.1469172877       -0.9553413634
 C         -3.9985115828        0.3082684398       -0.7476730763
 C         -4.7825654176       -0.3391992806        0.1333846344
 C         -6.1892470612        0.0522754840        0.4799890490
 C         -6.2182089851        1.0152244768        1.6752167512
 C         -5.2499480847        2.1911125597        1.5449368163
 H         -5.3792429029        2.8183860350        2.4296382529
 H         -4.2245129999        1.8146495280        1.5657957952
 C         -5.4499042135        3.0412512524        0.2825075417
 H         -6.4390235979        2.8544948237       -0.1373844476
 H         -5.4101598375        4.0964212390        0.5611654966
 C         -4.3911703566        2.8274044089       -0.8010522260
 H         -3.3935745102        2.9220471597       -0.3639087685
 H         -4.4989481461        3.6232246696       -1.5430288653
 C         -4.4635727816        1.4906609329       -1.5499703509
 H         -5.4776875377        1.3314448031       -1.9221844679
 H         -3.7879502403        1.5547492053       -2.4080667640
 H         -7.2363201154        1.3912735160        1.7911183799
 H         -5.9577218178        0.4560124031        2.5767863295
 H         -6.6558289629        0.5172264236       -0.3862129681
 H         -6.7439313506       -0.8510656844        0.7392808228
 O         -4.3602545743       -1.4086969027        0.8549012303
 C         -3.0629782275       -1.8787625917        0.7371547146
 O         -2.7958536728       -2.8462891528        1.4779058144
 H          1.2048537038       -0.5870457846       -1.7793120579
 C          1.1330957083       -0.1946247095       -0.7774730962
 C          0.1816346803       -0.6937806932        0.0965192161
 C          0.1151885821       -0.1620051749        1.3822370102
 C          0.9660352962        0.8533331642        1.7737828892
 C          1.9030719061        1.3632109903        0.8914517879
 C          1.9811895765        0.8364835100       -0.3901435346
 N          2.9299143964        1.3460303844       -1.2901215209
 S          4.4830213291        1.6297416675       -0.7436569023
 O          4.5300297932        2.8759738041       -0.0203310681
 O          5.3174286296        1.5514537630       -1.9219503018
 C          4.8379000374        0.2753292472        0.3628609891
 C          5.1000789931        0.5224317953        1.6946884454
 C          5.3450166347       -0.5483206746        2.5398073124
 C          5.3197356052       -1.8412147455        2.0411318824
 C          5.0572302778       -2.0732708324        0.6994010384
 C          4.8130367841       -1.0067545456       -0.1499521553
 H          4.6132874656       -1.1532352961       -1.1991655118
 H          5.0397676408       -3.0800618163        0.3138982550
 H          5.5065800635       -2.6738952062        2.7007778885
 H          5.5513910122       -0.3708391481        3.5830147391
 H          5.1090135755        1.5429508431        2.0414130273
 H          2.9233305344        0.9037378942       -2.1967929644
 H          2.5614389351        2.1690755938        1.1723185907
 H          0.8978996755        1.2571950867        2.7725826458
 H         -0.6228290865       -0.5552437564        2.0685715456
 C         -0.7897943402       -1.7855455835       -0.2803146377
 H         -0.7095856113       -2.5850893166        0.4694557196
 C         -0.5524621327       -2.3799966584       -1.6522044135
 C          0.5305519713       -3.3973566393       -1.8469960442
 C         -0.9079981036       -3.8152919891       -1.8910555429
 H         -1.3389494331       -4.0875554823       -2.8429209241
 H         -1.3074477563       -4.3734821296       -1.0568353823
 H          1.0883424306       -3.3892784583       -2.7713723682
 H          1.1113935021       -3.6776670569       -0.9815620158
 H         -0.7507926349       -1.6793668681       -2.4550274444
 O         -1.8706370912        0.4283743650       -1.7911234929
