  62
        -98.94725933
 C         -0.9754252531       -1.5266358223       -0.8767016367
 C         -2.2893737156       -1.4804272270       -0.3425880414
 C         -3.0608051026       -0.2628973106       -0.6058416844
 C         -2.5102209388        0.7273888818       -1.3298285771
 C         -3.1470999087        2.0512691943       -1.6531909321
 C         -2.9920435775        3.0857878233       -0.5295244446
 C         -3.8890044235        2.8571974166        0.6877872359
 H         -3.8657127327        3.7751482553        1.2787503614
 H         -4.9183656233        2.7047048245        0.3601588201
 C         -3.4493109586        1.6894251288        1.5823584827
 H         -2.4056254897        1.4403365884        1.3714591304
 H         -3.4894642337        2.0011634793        2.6293053891
 C         -4.3081427787        0.4304029189        1.4552122815
 H         -5.3172814807        0.6387255884        1.8193919432
 H         -3.8717262910       -0.3430753776        2.0925003981
 C         -4.4107500438       -0.1319636384        0.0318428574
 H         -4.8487897845       -1.1316624870        0.0912074599
 H         -5.0588553314        0.4990675536       -0.5761976339
 H         -1.9486542773        3.0973779758       -0.2021985561
 H         -3.2244425970        4.0675208018       -0.9496473707
 H         -2.6471977860        2.4307117786       -2.5470765015
 H         -4.2046190677        1.9109200418       -1.8787904881
 O         -1.2729658730        0.6258830372       -1.8746129816
 C         -0.4581088246       -0.4720124167       -1.6294238427
 O          0.6693657849       -0.3698638617       -2.1525960297
 H          1.3169785854       -0.5078762159        0.0863534180
 C          1.2484215276       -1.1628208466        0.9392630651
 C          0.5792888384       -2.3725569522        0.8284049087
 C          0.5303612206       -3.2093051669        1.9365104486
 C          1.1159387298       -2.8264101745        3.1309659587
 C          1.7222728715       -1.5889250807        3.2551910873
 C          1.7772821324       -0.7473240450        2.1502083928
 N          2.3454286324        0.5334998405        2.2210286332
 S          1.6058725013        1.7793658299        1.3703341620
 O          1.9940997930        2.9788531560        2.0881120998
 O          0.1823454184        1.5706527219        1.2383808771
 C          2.4063211708        1.8066919846       -0.2173479967
 C          1.7201347771        2.3387930562       -1.2891347920
 C          2.3542420673        2.4217298576       -2.5177995429
 C          3.6578337576        1.9730714756       -2.6516363608
 C          4.3345343915        1.4424692449       -1.5643196172
 C          3.7074493739        1.3607014029       -0.3319333360
 H          4.2009144983        0.9466394201        0.5317222125
 H          5.3469679941        1.0878982865       -1.6740431748
 H          4.1462204198        2.0315207492       -3.6117434982
 H          1.8223179370        2.8234636902       -3.3652731178
 H          0.6984612551        2.6567782642       -1.1507980053
 H          2.6299319115        0.8299832912        3.1434738512
 H          2.1388219775       -1.2712817879        4.1988813352
 H          1.0723299195       -3.4852345690        3.9849793030
 H          0.0086364188       -4.1521464805        1.8666156271
 C         -0.1272640739       -2.7182690365       -0.4629870037
 H         -0.8376745655       -3.5285792419       -0.2481034252
 C          0.8561126446       -3.2031428322       -1.5075930211
 C          1.3368952515       -4.6213221023       -1.4504056364
 C          0.4039297185       -4.1892588939       -2.5407290496
 H          0.7870737818       -4.0916202238       -3.5450033834
 H         -0.6225466699       -4.5233002460       -2.4963446194
 H          2.3655065190       -4.8248459745       -1.7047116255
 H          0.9430081267       -5.2543114456       -0.6698867580
 H          1.5593865648       -2.4427454956       -1.8199266887
 O         -2.7933102331       -2.4211816271        0.3298119305
