  62
        -98.93687931
 C         -1.1424680602       -1.5095416698        0.2871904806
 C         -1.7529835201       -0.6273060094        1.2131718103
 C         -3.0192083502       -0.0084811496        0.7954985102
 C         -3.4924473503       -0.2608155201       -0.4379578596
 C         -4.7228477204        0.3515309696       -1.0446732097
 C         -4.4205770305        1.7909146094       -1.5082371604
 C         -5.1840397904        2.8721558898       -0.7429196207
 H         -4.7342347604        3.8332153896       -1.0016158512
 H         -6.2196133505        2.8878473096       -1.0895207106
 C         -5.2020148502        2.7238696304        0.7814271393
 H         -5.5386160802        3.6793068806        1.1893735790
 H         -5.9486690602        1.9820222805        1.0690091398
 C         -3.8646840801        2.3532150307        1.4360496493
 H         -3.0278925502        2.6528372004        0.8032235591
 H         -3.7745258800        2.9176557511        2.3666632991
 C         -3.7212755001        0.8632263009        1.7996606900
 H         -3.1184376699        0.7840905313        2.7092117699
 H         -4.7075695700        0.4450569510        2.0202924903
 H         -3.3458807205        1.9653497795       -1.4129305306
 H         -4.6588443106        1.8898810990       -2.5685294304
 H         -5.0081879705       -0.2682857007       -1.8950350794
 H         -5.5335942303        0.3446578599       -0.3193856396
 O         -2.8452296305       -1.0591733105       -1.3247053293
 C         -1.6501651004       -1.6892281303       -0.9998910892
 O         -1.1662898505       -2.3585744107       -1.9310254290
 O         -1.2562023700       -0.3670669389        2.3425604102
 C          0.1724396798       -2.1516852396        0.6897952408
 C          1.2236520197       -1.8768203400       -0.3562996995
 C          2.0521334296       -2.8428616203       -0.9109684692
 C          3.0085734295       -2.4867155407       -1.8468070595
 C          3.1799662694       -1.1682104308       -2.2268964601
 C          2.3538631595       -0.1939669006       -1.6776823004
 C          1.3845345796       -0.5575215702       -0.7591301701
 H          0.7235655097        0.2005186500       -0.3669199703
 N          2.4896785194        1.1603183492       -2.0199120710
 S          2.2297202796        2.3177270198       -0.8420043215
 O          0.8167170696        2.5161111598       -0.6320040214
 O          2.9614571295        3.4760265896       -1.3100369520
 C          3.0099048898        1.6581903204        0.6214694787
 C          2.2594121499        1.2725532009        1.7129691790
 C          2.9044157901        0.7096878413        2.8035003392
 C          4.2801651101        0.5441331013        2.7851885590
 C          5.0224293999        0.9475146409        1.6853380288
 C          4.3831786498        1.5071159404        0.5918885986
 H          4.9268179197        1.8401690000       -0.2771605616
 H          6.0931474299        0.8229245609        1.6757258787
 H          4.7753755902        0.1000494217        3.6341548492
 H          2.3207481502        0.3971400417        3.6549241894
 H          1.1884511499        1.4050289509        1.7004368991
 H          3.2817680294        1.3789054790       -2.6056653812
 H          3.9321642093       -0.8939996611       -2.9504108703
 H          3.6375833494       -3.2487178309       -2.2812072592
 H          1.9360994597       -3.8764868602       -0.6300717687
 H          0.4692591699       -1.5993804192        1.5984387205
 C          0.0744970899       -3.6147989594        1.0940149814
 C         -1.2269893901       -4.2128804192        1.5357360918
 C         -0.6049687202       -4.6439837598        0.2430712719
 H         -0.1704181302       -5.6316767198        0.1906925423
 H         -1.0509146004       -4.3113364002       -0.6804910282
 H         -1.2200415600       -4.9004145789        2.3682923921
 H         -2.1060096301       -3.5856167893        1.4937317017
 H          0.9558118699       -3.9422920292        1.6368556014
