  62
        -98.93571142
 C         -1.3362562500       -1.8171019583       -0.0159362096
 C         -2.2307325799       -1.2437331778        0.9231434902
 C         -3.2918866698       -0.3644565078        0.4002412097
 C         -3.3567889097       -0.1346866084       -0.9242014204
 C         -4.3405781996        0.6564692513       -1.7616756207
 C         -5.4088430195        1.5197195718       -1.0971284012
 C         -4.8720953593        2.7835747020       -0.4240430217
 H         -4.5746091192        3.4877821016       -1.2052880420
 H         -5.6829825192        3.2433924024        0.1446020880
 C         -3.6685336193        2.5809675623        0.4929044784
 H         -3.3498632492        3.5663518524        0.8430170179
 H         -2.8425147894        2.1517942519       -0.0764985114
 C         -3.9201857995        1.7095593429        1.7204539288
 H         -4.7507860194        2.1180607832        2.2996103086
 H         -3.0241922995        1.7471146130        2.3456756488
 C         -4.2146250797        0.2307456028        1.4258499394
 H         -4.0488865198       -0.3357955268        2.3469290697
 H         -5.2537298497        0.0872562428        1.1391390595
 H         -6.0958151594        1.8332410415       -1.8878364413
 H         -5.9881832096        0.9235423422       -0.3981503809
 H         -3.7392298195        1.2791533209       -2.4320091910
 H         -4.8384191897       -0.0829272889       -2.3987374104
 O         -2.4575167698       -0.6878831790       -1.7890235401
 C         -1.4366434199       -1.5312757489       -1.3762386397
 O         -0.7170918200       -1.9304862895       -2.3116789895
 O         -2.1593281900       -1.4776265472        2.1588066403
 C         -0.2865390502       -2.7673863582        0.5344873609
 C          1.0301116199       -2.0708096183        0.7615499906
 C          1.6633477299       -2.1217564579        1.9974720306
 C          2.8720076300       -1.4767713080        2.1980240304
 C          3.4726509401       -0.7694171785        1.1722599501
 C          2.8421726702       -0.7045230390       -0.0639733000
 C          1.6301383701       -1.3493533789       -0.2621633597
 H          1.1467480401       -1.3004296493       -1.2269032697
 N          3.4379492303        0.0196847304       -1.1169956903
 S          3.7908177905        1.6296568105       -0.8217172610
 O          3.9405956307        2.2383396999       -2.1233092213
 O          4.9328334805        1.7091119707        0.0534091390
 C          2.3445793806        2.2664360211        0.0033282887
 C          1.2581126707        2.6250269909       -0.7694223915
 C          0.1043597708        3.0637630914       -0.1413782117
 C          0.0512130607        3.1189736020        1.2429492082
 C          1.1492515307        2.7522456422        2.0048279684
 C          2.3102889906        2.3230180117        1.3819363886
 H          3.1882561505        2.0404548219        1.9385582488
 H          1.1034417006        2.7971287027        3.0809603184
 H         -0.8524587392        3.4510812324        1.7291478281
 H         -0.7491824792        3.3574161213       -0.7314177219
 H          1.3381421307        2.5691370004       -1.8436284215
 H          2.9307022003       -0.0674645799       -1.9865834103
 H          4.4142541502       -0.2624778886        1.3082046999
 H          3.3535036700       -1.5275911276        3.1625411004
 H          1.1963598198       -2.6627332374        2.8072867309
 H         -0.6758093002       -3.0624894277        1.5215360910
 C         -0.1517169103       -4.0391563786       -0.2937240885
 C          1.0588105696       -4.3895294892       -1.1009516083
 C          0.7635975195       -5.1367224486        0.1627694020
 H          0.4228626893       -6.1587626286        0.0965207425
 H          1.3914505495       -4.9333197283        1.0172265519
 H          0.9002325196       -4.8819758596       -2.0484174981
 H          1.8922618997       -3.7050237493       -1.1052386986
 H         -1.1053263404       -4.3469671487       -0.7117360284
