  62
        -98.94633827
 C         -1.7869289457       -0.7435859342        0.2200875305
 C         -3.0804652629       -0.9905971167        0.7386490475
 C         -4.0019877890        0.1531553293        0.7356411027
 C         -3.5728152837        1.3423038325        0.2742516718
 C         -4.4224031910        2.5743032716        0.1624993057
 C         -5.0974399606        2.6598961971       -1.2136291715
 C         -5.8011937768        1.3708248339       -1.6379992234
 H         -6.2660108308        1.5583592623       -2.6084181703
 H         -5.0534965432        0.5882374501       -1.7867468236
 C         -6.8650140777        0.8731250641       -0.6495023385
 H         -7.7548683773        0.5804721580       -1.2108224323
 H         -7.1567058814        1.6830751561        0.0200626971
 C         -6.4419509314       -0.3414056387        0.1789048393
 H         -6.0613685439       -1.1224618564       -0.4842711409
 H         -7.3301299123       -0.7396907709        0.6766670396
 C         -5.3904137034       -0.0752914762        1.2634430891
 H         -5.7093141195        0.7620917949        1.8873504287
 H         -5.3286325041       -0.9685822302        1.8919982705
 H         -5.8175676366        3.4799252518       -1.1945206884
 H         -4.3347618137        2.8943670016       -1.9598456831
 H         -5.1756581489        2.5627163905        0.9478002246
 H         -3.7821972195        3.4475243375        0.2977919843
 O         -2.3143979767        1.5473434472       -0.1915724276
 C         -1.3932312021        0.5114436703       -0.2418210550
 O         -0.2829624271        0.8342436540       -0.7033918758
 H          1.8716515382       -1.9177644308       -0.6314597334
 C          1.7265158427       -1.6052761875        0.3885635673
 C          0.4562181177       -1.5282546378        0.9363861481
 C          0.3255177829       -1.1169051025        2.2614590737
 C          1.4348353553       -0.7798603787        3.0111860135
 C          2.7008144023       -0.8379005584        2.4532764106
 C          2.8434806535       -1.2526751644        1.1358740795
 N          4.1186685728       -1.3480793429        0.5456458272
 S          4.4468453876       -0.4873905148       -0.8533384755
 O          3.5602449097       -0.9043944916       -1.9072575314
 O          5.8596852549       -0.6962923995       -1.0865282605
 C          4.1676088733        1.2171332417       -0.4073763769
 C          2.8777151437        1.7052184680       -0.3502834259
 C          2.6819774964        3.0139627080        0.0650906716
 C          3.7650740945        3.8050746866        0.4140630152
 C          5.0543787807        3.2974071802        0.3510904323
 C          5.2588953557        1.9902810025       -0.0581702785
 H          6.2426366493        1.5544090168       -0.1266339875
 H          5.8965253715        3.9142014815        0.6208138398
 H          3.6024819363        4.8219712697        0.7353209859
 H          1.6744433665        3.3963234350        0.1108182869
 H          2.0404665441        1.0832084963       -0.6255334592
 H          4.8775308023       -1.2132503058        1.1996628371
 H          3.5699605549       -0.5691551025        3.0344653083
 H          1.3151285888       -0.4631085987        4.0362134375
 H         -0.6645060386       -1.0649671031        2.6941178587
 C         -0.7881813996       -1.8850416707        0.1629161237
 H         -1.2786261979       -2.7277995341        0.6728987402
 C         -0.5208702770       -2.2791772247       -1.2743317981
 C         -0.1137356673       -3.6823560752       -1.6067761744
 C         -1.4835996877       -3.1937851419       -1.9678899358
 H         -1.7108614656       -3.0118636770       -3.0077297337
 H         -2.3240136229       -3.5560085035       -1.3935899623
 H         -0.0244494303       -4.3833034873       -0.7905759903
 H          0.6049954171       -3.8340651142       -2.3981977444
 H         -0.0898299518       -1.4737222230       -1.8597131282
 O         -3.4437049142       -2.1112879783        1.1868533059
