  62
        -98.93844677
 C         -1.8870346323       -0.8815438425        0.3489263414
 C         -2.1760430931        0.2872568615       -0.3924368405
 C         -3.4755247604        0.9329890062       -0.1216671255
 C         -4.2852958470        0.4196832266        0.8195859400
 C         -5.6532663264        0.8987908178        1.2192459835
 C         -6.7437461306        0.1422303675        0.4418964448
 C         -7.1074844734        0.7492041287       -0.9125907373
 H         -7.7843183209        0.0511079369       -1.4105380306
 H         -7.6565881650        1.6796163050       -0.7529974503
 C         -5.9236059359        1.0330811825       -1.8406470162
 H         -5.2250531964        0.1949367055       -1.8124678914
 H         -6.3066660013        1.1004258822       -2.8607822026
 C         -5.1889031689        2.3380213721       -1.4990844758
 H         -5.7938692604        2.9151665865       -0.8000144027
 H         -5.0952710131        2.9467150421       -2.4009989054
 C         -3.7712169370        2.1646267679       -0.9344322533
 H         -3.0540600954        2.1310835603       -1.7605859641
 H         -3.5148604766        3.0462408449       -0.3369272539
 H         -7.6490087072        0.1085028499        1.0514375449
 H         -6.4036965885       -0.8875268420        0.3051403226
 H         -5.7431538873        1.9720873994        1.0807929650
 H         -5.7628460182        0.6711794577        2.2817235881
 O         -3.9597460770       -0.6938857771        1.5307003849
 C         -2.7771446126       -1.3699532926        1.3120025313
 O         -2.6284023427       -2.3828297750        2.0239895867
 O         -1.4055450376        0.7918160736       -1.2546499853
 C         -0.6097521696       -1.6913682404        0.1824213067
 C          0.5484743361       -1.0479043718        0.9066013912
 C          1.1601017428       -1.6835517068        1.9803912964
 C          2.2393643778       -1.1022019229        2.6235887784
 C          2.7311663128        0.1217462586        2.2073747145
 C          2.1218550876        0.7664301049        1.1387329564
 C          1.0439821902        0.1804526384        0.4925537742
 H          0.5686684950        0.6909950495       -0.3317836521
 N          2.6287908579        2.0060968622        0.6952578413
 S          4.2392963850        1.9863317072        0.2272361170
 O          5.0754836870        2.0306665476        1.4006585151
 O          4.3926057222        3.0835674873       -0.7014804781
 C          4.4337256992        0.4190134385       -0.6018213428
 C          5.0969509675       -0.6150501645        0.0264794765
 C          5.1611399961       -1.8482474786       -0.6021339543
 C          4.5605795546       -2.0257827870       -1.8385333209
 C          3.9009380928       -0.9754755440       -2.4582085194
 C          3.8311538867        0.2587119387       -1.8337357259
 H          3.3277738374        1.0978095055       -2.2872460874
 H          3.4367118066       -1.1134094978       -3.4217165130
 H          4.6069094016       -2.9882283225       -2.3233416136
 H          5.6741760694       -2.6668149836       -0.1237767991
 H          5.5497648156       -0.4342165152        0.9873541812
 H          2.0611046787        2.4201325242       -0.0310577783
 H          3.5746273995        0.5885122539        2.6901657628
 H          2.7030602593       -1.6075872685        3.4568791171
 H          0.7754318834       -2.6352368961        2.3171692477
 H         -0.8111041232       -2.6554756873        0.6675932400
 C         -0.2507064223       -1.9511617431       -1.2687804889
 C          0.6869656842       -3.0738641934       -1.5907732533
 C         -0.7654830590       -3.1849811595       -1.9436903693
 H         -1.0534043148       -3.1213186373       -2.9823844694
 H         -1.3837331590       -3.8529274461       -1.3612906237
 H          1.4013794103       -2.9341359569       -2.3867244030
 H          1.0554244234       -3.6675735076       -0.7682298324
 H         -0.1839504195       -1.0507939234       -1.8642856587
