  62
        -98.94562013
 C         -1.3703890614       -1.6083052327       -0.0916689774
 C         -2.6133702780       -1.1632649543        0.4221935489
 C         -3.1733633410        0.0456620367       -0.1906171945
 C         -2.4945382821        0.6710535916       -1.1683475046
 C         -2.9169952121        1.9282007685       -1.8785714167
 C         -2.5543992321        3.2106656617       -1.1164825627
 C         -3.4263167744        3.5068935900        0.1042799045
 H         -3.2291495025        4.5410586400        0.3940114180
 H         -4.4793622677        3.4394299189       -0.1727013292
 C         -3.1473538641        2.6008149294        1.3118311467
 H         -2.1658505533        2.1323850622        1.1986550501
 H         -3.0959622097        3.2108164962        2.2174218790
 C         -4.2030734388        1.5217751082        1.5570047094
 H         -3.8737521170        0.9102004465        2.4011162902
 H         -5.1494629584        1.9938358402        1.8324133717
 C         -4.4546073296        0.5888298769        0.3656214604
 H         -5.0135967942        1.1125695910       -0.4098608032
 H         -5.0501937349       -0.2579270768        0.7167261169
 H         -1.5099745909        3.1516505086       -0.7978726448
 H         -2.6451823614        4.0456886650       -1.8154614224
 H         -3.9910928852        1.9055476434       -2.0652345071
 H         -2.3968219896        1.9363126498       -2.8389638990
 O         -1.3100149150        0.2086253315       -1.6436935510
 C         -0.6964013850       -0.9109287121       -1.0954114035
 O          0.4149951596       -1.1678950621       -1.5937455339
 O         -3.2219889074       -1.7458685839        1.3606471970
 C         -0.6976641441       -2.7832562145        0.5954815934
 C          0.7323077720       -2.4199184489        0.9154548986
 C          1.8179029626       -3.2576656829        0.6973847248
 C          3.1021230268       -2.8339719524        0.9956534525
 C          3.3347922932       -1.5629735258        1.4869248652
 C          2.2539277609       -0.7179195763        1.7095253099
 C          0.9688853999       -1.1621802018        1.4576089543
 H          0.1418489431       -0.4925503411        1.6447807554
 N          2.4288883892        0.6005186473        2.1801939695
 S          1.8337954061        1.8387976321        1.2235226297
 O          2.4063347320        3.0405888032        1.7980261258
 O          0.3949747281        1.7924590234        1.1754614601
 C          2.5256441933        1.5939929168       -0.4025084721
 C          1.6986615020        1.6104441706       -1.5042209528
 C          2.2508530086        1.4313351263       -2.7625000329
 C          3.6156102525        1.2378170992       -2.8958712561
 C          4.4377942790        1.2340684275       -1.7791208472
 C          3.8907658093        1.4165714185       -0.5205068789
 H          4.5084214444        1.4349742398        0.3628571471
 H          5.5006121511        1.0878180817       -1.8863465088
 H          4.0407780372        1.0906552375       -3.8762254225
 H          1.6073107490        1.4317782959       -3.6274798034
 H          0.6392564345        1.7473851577       -1.3624202160
 H          3.3758912210        0.8138700326        2.4609317442
 H          4.3390457527       -1.2254994881        1.6938978613
 H          3.9356798981       -3.4969525252        0.8210246776
 H          1.6645156729       -4.2374491653        0.2760546943
 H         -1.2420055830       -2.8862667800        1.5502423003
 C         -0.8408279805       -4.1138041832       -0.1292595668
 C         -1.8998706300       -4.3216154373       -1.1693486941
 C         -0.4571814354       -4.2761398963       -1.5687294131
 H          0.0178892622       -5.1975102347       -1.8723097704
 H         -0.0936491356       -3.4014975420       -2.0842847548
 H         -2.4145478194       -5.2706597101       -1.1926510768
 H         -2.5269749051       -3.4785384106       -1.4215152844
 H         -0.6469159491       -4.9583873635        0.5247606928
