  62
        -98.94703223
 C          1.5200589704        1.0688479509        0.0817211825
 C          2.5322390704        0.6098905306        0.9548427043
 C          3.1038670235       -0.7053197716        0.6412394639
 C          2.6131409613       -1.4038133609       -0.3995066588
 C          3.1304285869       -2.7370529435       -0.8549694810
 C          4.2325211753       -2.5774683180       -1.9117987338
 C          5.3256834388       -1.5841712069       -1.5176222840
 H          6.0631716111       -1.5756663054       -2.3229199725
 H          4.8935654161       -0.5823639786       -1.4650286444
 C          6.0235734485       -1.9040164185       -0.1884220318
 H          5.8406405838       -2.9437119728        0.0852801721
 H          7.1011482100       -1.7879123502       -0.3213188533
 C          5.6184964279       -0.9964251777        0.9744105597
 H          5.7109089624        0.0496734894        0.6720175764
 H          6.3195256344       -1.1631276061        1.7965664083
 C          4.2049154294       -1.2131903262        1.5297335201
 H          4.0562180120       -2.2705325763        1.7603846133
 H          4.1228670654       -0.6453928884        2.4616209843
 H          4.6768299818       -3.5572099011       -2.0962414300
 H          3.7729394384       -2.2317321811       -2.8404873232
 H          3.5116035209       -3.2848597396        0.0049438376
 H          2.2972353369       -3.2956154590       -1.2854562328
 O          1.6123409856       -0.9483100138       -1.1925457279
 C          1.0298040043        0.2864690809       -0.9650076016
 O          0.1103542971        0.5762849695       -1.7540847482
 H         -0.3028572853        0.5652955339        1.8333779425
 C         -1.0379738794        1.1786743522        1.3259609601
 C         -0.6126680832        2.2256654572        0.5167462519
 C         -1.5749289164        2.9993801740       -0.1188417442
 C         -2.9208883182        2.7041981289        0.0186986728
 C         -3.3333947029        1.6208911189        0.7730415572
 C         -2.3788255182        0.8585899360        1.4319384054
 N         -2.7990007776       -0.3138810754        2.1297642723
 S         -2.5620977628       -1.6711730108        1.1459859203
 O         -3.0855780612       -2.7944788252        1.8958781061
 O         -1.1760635713       -1.7960140479        0.7440920278
 C         -3.6098357889       -1.3114303106       -0.2416963241
 C         -4.9525409453       -1.6211712471       -0.1396374104
 C         -5.7956711177       -1.2971286571       -1.1897578520
 C         -5.2836628496       -0.6657103844       -2.3137830316
 C         -3.9339929925       -0.3602633857       -2.3975477354
 C         -3.0818259769       -0.6829218482       -1.3520746803
 H         -2.0279303940       -0.4489819310       -1.3879621649
 H         -3.5318117013        0.1343814745       -3.2670507483
 H         -5.9398349175       -0.4088346458       -3.1304356109
 H         -6.8457360607       -1.5332906937       -1.1278730202
 H         -5.2997030797       -2.1121692752        0.7545790241
 H         -2.2761120514       -0.4627460637        2.9838788902
 H         -4.3742424294        1.3541137659        0.8560272595
 H         -3.6548095141        3.3099917996       -0.4894838166
 H         -1.2681828393        3.8250422967       -0.7399062462
 C          0.8723915183        2.4183368236        0.3417353708
 H          1.2985296338        2.7724746296        1.2923991860
 C          1.2318556580        3.3999462159       -0.7537605776
 C          1.2977590985        4.8688614979       -0.4625480284
 C          2.5585818566        4.0938938022       -0.6963823636
 H          3.0995105674        4.2492575049       -1.6177349294
 H          3.1935626626        3.8771420124        0.1503815126
 H          0.9756175225        5.5607311300       -1.2258786864
 H          1.0806533500        5.1888821532        0.5452148358
 H          0.8744246133        3.0829090071       -1.7271910492
 O          2.9321123687        1.2673161235        1.9561172614
