  62
        -98.93897503
 C          2.5480578813        1.0089479400        0.2381828894
 C          3.2806044567        0.1162984180        1.0612330596
 C          3.8032264654       -1.0917401240        0.4098874587
 C          3.5371557653       -1.3016249071       -0.8919873854
 C          3.9511333740       -2.5181826246       -1.6670093912
 C          2.8663642911       -3.6032633129       -1.6147026325
 C          2.3579564222       -3.9021041197       -0.2041748659
 H          1.8288928664       -3.0245509241        0.1760290951
 H          1.6207335652       -4.7036912224       -0.2882105573
 C          3.4515798073       -4.3110470116        0.7928081987
 H          3.0992044500       -5.1728699090        1.3632136035
 H          4.3456585994       -4.6234262621        0.2522890302
 C          3.8246858575       -3.2277476505        1.8065119181
 H          4.4358545731       -3.6885330536        2.5869529318
 H          2.9186948023       -2.8455399041        2.2838606990
 C          4.6153603030       -2.0368167882        1.2503875047
 H          4.9725852180       -1.4499366305        2.1016198908
 H          5.4818941420       -2.3985199212        0.6933786079
 H          3.2684261848       -4.5154733387       -2.0592843553
 H          2.0172475146       -3.2752846755       -2.2196321013
 H          4.8844240339       -2.9023062811       -1.2597576105
 H          4.1099820243       -2.2264266878       -2.7065055834
 O          2.8048852530       -0.4413827351       -1.6432978728
 C          2.2783712275        0.7258806846       -1.1020809794
 O          1.6092124246        1.3957784734       -1.9103046083
 O          3.4805351557        0.3177155916        2.2891239574
 C          1.9769777267        2.2571992834        0.8884684657
 C          0.5250914104        2.4116647026        0.5094034826
 C         -0.0023563176        3.5390818546       -0.1045467527
 C         -1.3416769725        3.5848880994       -0.4512584694
 C         -2.1815832665        2.5175331227       -0.1939822662
 C         -1.6643498963        1.3829618879        0.4165879696
 C         -0.3262004565        1.3455909138        0.7738100045
 H          0.0770327421        0.4564314772        1.2456869295
 N         -2.5076016666        0.2837208351        0.6889746369
 S         -3.2414487200       -0.5261598156       -0.5982531011
 O         -2.6136171017       -1.8248100478       -0.7355249351
 O         -3.2613856709        0.3140468838       -1.7682185401
 C         -4.9031326468       -0.7385415382        0.0138781067
 C         -5.6483014868        0.3933074743        0.2812442114
 C         -6.9393146273        0.2493094702        0.7624543907
 C         -7.4626225860       -1.0189731810        0.9668170879
 C         -6.7027841824       -2.1458199076        0.6945037455
 C         -5.4092069900       -2.0071625663        0.2147323408
 H         -4.7820307431       -2.8546900987       -0.0097930880
 H         -7.1110690194       -3.1308914168        0.8538181648
 H         -8.4683886029       -1.1290465404        1.3404753589
 H         -7.5316336880        1.1242835168        0.9768395755
 H         -5.2062152175        1.3605913949        0.1091855173
 H         -2.0479035738       -0.4111216626        1.2619529664
 H         -3.2165755377        2.5414869001       -0.4916654961
 H         -1.7356155626        4.4644211838       -0.9376711658
 H          0.6399630113        4.3713849042       -0.3404880060
 H          2.0230738030        2.0447497196        1.9703053876
 C          2.8013401760        3.5155069465        0.6637926453
 C          4.2744490028        3.4367496631        0.3993399046
 C          3.3425598837        3.8902479683       -0.6820716265
 H          3.3499836097        4.9344784430       -0.9585444653
 H          3.1402804948        3.2228215459       -1.5049170531
 H          4.9183819861        4.1671667727        0.8656522608
 H          4.7170906207        2.4548398066        0.3145522393
 H          2.4738577832        4.3314380160        1.3007105248
