  62
        -98.93788020
 C          1.6862794202        0.9338012697       -0.0220456585
 C          3.0118472402        1.2436956094        0.3554739316
 C          4.0253247200        0.1956053491        0.1333134415
 C          3.6385954297       -0.9876454907       -0.3769593586
 C          4.4784897895       -2.1981919409       -0.6983626586
 C          5.5410495593       -2.6001703012        0.3360474014
 C          6.9746299794       -2.3392895515       -0.1299775885
 H          7.6457778592       -3.0092571317        0.4120905714
 H          7.0472652294       -2.5936908014       -1.1894811086
 C          7.4781633997       -0.9125058716        0.0815058716
 H          7.6463537297       -0.7422914718        1.1471727916
 H          8.4462696598       -0.8261296118       -0.4175328084
 C          6.5562900200        0.1899791386       -0.4430891884
 H          6.1367119100       -0.0904491912       -1.4086565684
 H          7.1631062802        1.0830240485       -0.6074476583
 C          5.4287858101        0.5633330888        0.5311328916
 H          5.6376800599        0.1465131987        1.5205647416
 H          5.4021928403        1.6494883488        0.6632492517
 H          5.3508282894       -2.0926240313        1.2802953814
 H          5.4378336891       -3.6710043712        0.5187854113
 H          3.7617595793       -3.0121407207       -0.8286757287
 H          4.9501346095       -2.0416315309       -1.6718726986
 O          2.3422868997       -1.2460075804       -0.7153900286
 C          1.3407451299       -0.3034405002       -0.5611568386
 O          0.2134140798       -0.6845425099       -0.9266681787
 O          3.3393866304        2.3524089592        0.8593242717
 C          0.6037101004        1.9829083899        0.1499699716
 C         -0.5232724698        1.4411153501        0.9927597915
 C         -0.2255716499        0.8747387799        2.2306161514
 C         -1.2258679501        0.3667213101        3.0354717314
 C         -2.5464638701        0.4055284704        2.6209522013
 C         -2.8557388399        0.9747591906        1.3927112713
 C         -1.8482948297        1.4985622604        0.5919712714
 H         -2.1209296796        1.9302122906       -0.3558404986
 N         -4.1909699798        1.0579478809        0.9550677913
 S         -4.6330530699        0.4231281512       -0.5297028888
 O         -3.8916835697        1.0666851511       -1.5820759787
 O         -6.0711484299        0.5761548215       -0.5757971288
 C         -4.2285441103       -1.3113254789       -0.4248037389
 C         -5.2457065606       -2.2068698187       -0.1528139590
 C         -4.9407547409       -3.5507830988       -0.0155950291
 C         -3.6259982610       -3.9745981991       -0.1413039491
 C         -2.6176508707       -3.0620580493       -0.4082971490
 C         -2.9147001704       -1.7151053792       -0.5529300289
 H         -2.1345843603       -1.0003272694       -0.7628414188
 H         -1.5907923208       -3.3769751595       -0.5069508390
 H         -3.3850825012       -5.0204354292       -0.0322932392
 H         -5.7248782310       -4.2614514186        0.1905442908
 H         -6.2528321905       -1.8318930685       -0.0662890590
 H         -4.8647321699        0.7700444410        1.6512013112
 H         -3.3300015602        0.0034536506        3.2452659412
 H         -0.9773258802       -0.0698093900        3.9910392513
 H          0.8070454300        0.8374623997        2.5505464215
 H          1.0793564906        2.8082253698        0.7006489816
 C          0.1568470806        2.4982069001       -1.2020665184
 C         -0.3812731791        3.8900396303       -1.3384944983
 C          0.9728761908        3.5530005200       -1.8845045783
 H          1.0996084309        3.4949182301       -2.9552137983
 H          1.8427815109        3.9215312498       -1.3605781982
 H         -1.1899830690        4.0611375905       -2.0332988883
 H         -0.4317999490        4.4957944902       -0.4462807083
 H         -0.2770419296        1.7234736503       -1.8257521985
