  62
        -98.94655028
 C         -1.1027107444       -1.7981857518       -0.2282647463
 C         -1.2290452852       -0.6034491559       -0.9813951176
 C         -2.5473469455        0.0505266930       -0.9327701274
 C         -3.5371400008       -0.4959835657       -0.2060123799
 C         -4.9114051985        0.0850909917       -0.0433498645
 C         -4.9917418544        1.0015530665        1.1846524587
 C         -3.8719579248        2.0400480603        1.2580347862
 H         -4.0584530951        2.6587305466        2.1389553089
 H         -2.9159776624        1.5363510586        1.4225481252
 C         -3.7543340746        2.9385167522        0.0193572390
 H         -4.6796661188        2.9017961806       -0.5578309432
 H         -3.6165093492        3.9702698745        0.3500357156
 C         -2.5694013258        2.6019005645       -0.8881394251
 H         -1.6642568187        2.5275609428       -0.2789041871
 H         -2.4317798154        3.4324270957       -1.5871883785
 C         -2.7114624201        1.3201025741       -1.7197754874
 H         -3.6695677204        1.3276888903       -2.2446681651
 H         -1.9100300164        1.3148202150       -2.4645134338
 H         -5.9583096847        1.5090378448        1.1733500362
 H         -4.9430742928        0.3826846807        2.0836554096
 H         -5.1729240325        0.6411439461       -0.9416108132
 H         -5.6177801457       -0.7374707495        0.0827296458
 O         -3.3827627471       -1.6443180920        0.5016215669
 C         -2.1686668066       -2.3089355136        0.5170612997
 O         -2.1649508304       -3.3443913453        1.2151698161
 H          0.6940833738       -0.0172380815        0.5028172046
 C          1.2921848429       -0.7072949299        1.0732990902
 C          1.1375605670       -2.0720802432        0.8902731024
 C          1.9123820384       -2.9391766539        1.6533573424
 C          2.8196252646       -2.4457609515        2.5733069432
 C          2.9789058332       -1.0823549343        2.7461306776
 C          2.2039081671       -0.2074056740        1.9924105412
 N          2.3312580510        1.1747638938        2.1484924261
 S          1.7021318412        2.2781391612        1.0763097666
 O          2.3423719961        3.5237883616        1.4520853509
 O          0.2619725572        2.2801272528        1.1500969607
 C          2.2554085658        1.8198228856       -0.5566380568
 C          1.5010909277        2.2386212157       -1.6326092966
 C          1.9271834839        1.9293831610       -2.9136866333
 C          3.0936965117        1.2052691695       -3.0962733402
 C          3.8442346243        0.7964069285       -2.0052256612
 C          3.4274788129        1.1097689653       -0.7217266493
 H          3.9957817174        0.7953316865        0.1384895949
 H          4.7501210621        0.2292641736       -2.1485853608
 H          3.4171236995        0.9542728757       -4.0944426464
 H          1.3393417461        2.2434255595       -3.7611814351
 H          0.5877874146        2.7814719920       -1.4505111060
 H          3.1192713943        1.5111871411        2.6783329349
 H          3.6869622951       -0.6955810251        3.4625618398
 H          3.4121207863       -3.1289547891        3.1623785499
 H          1.7909198577       -4.0047679396        1.5309266785
 C          0.1808253174       -2.6065707151       -0.1500068121
 H         -0.1205970153       -3.6167958895        0.1606927455
 C          0.9050531605       -2.7084059446       -1.4811461096
 C          1.7393726576       -3.9150154273       -1.7821674706
 C          0.4393104570       -3.7048856519       -2.4977813359
 H          0.4561153002       -3.4223029852       -3.5393526527
 H         -0.3977748634       -4.3341304281       -2.2307811146
 H          1.7831954872       -4.6978246157       -1.0405180976
 H          2.6567787671       -3.7787049780       -2.3333709918
 H          1.2509523683       -1.7498988368       -1.8464001675
 O         -0.3087606164       -0.0923506853       -1.6713280389
