  62
        -98.93611270
 C         -2.2282695006       -0.7868308154        0.1399324737
 C         -3.4206720758       -0.9308107858        0.8943991321
 C         -4.3769401790        0.1888992141        0.8634349063
 C         -4.0681977767        1.2975259540        0.1661630448
 C         -4.8125781787        2.6045034928       -0.0108457194
 C         -6.2847042323        2.7235616097        0.3753651700
 C         -7.2418932273        1.9071560895       -0.4924704065
 H         -8.2441531828        1.9907688896       -0.0667557192
 H         -7.2670391466        2.3491559827       -1.4917666865
 C         -6.8913566934        0.4298006080       -0.6513628438
 H         -5.9343800697        0.3342322125       -1.1687322642
 H         -7.6500503362       -0.0264457974       -1.2930604632
 C         -6.8373115884       -0.3728584961        0.6471230737
 H         -6.7410215679       -1.4281376413        0.3776713541
 H         -7.7751001860       -0.2522593269        1.1926460509
 C         -5.6723382021       -0.0280459635        1.5913233311
 H         -5.9093705643        0.8300099101        2.2157159606
 H         -5.5110822616       -0.8822002460        2.2553500174
 H         -6.5515997448        3.7775073120        0.2587896628
 H         -6.4195326268        2.4797417885        1.4249953975
 H         -4.6963002855        2.8720566531       -1.0660675797
 H         -4.2433430154        3.3482378967        0.5579807907
 O         -2.8868781913        1.4121016936       -0.5063622032
 C         -1.9467830507        0.3909225159       -0.5524606386
 O         -0.9448228212        0.6736686144       -1.2360818143
 O         -3.6775946041       -1.9579612842        1.5768022657
 C         -1.2441233640       -1.9439971246        0.1734199055
 C          0.1278863115       -1.4394652101        0.5368847982
 C          0.4314273404       -1.1803091965        1.8700171972
 C          1.6659412834       -0.6705059983        2.2253557424
 C          2.6177917430       -0.3965751225        1.2585511112
 C          2.3153807591       -0.6299858785       -0.0758185739
 C          1.0852042321       -1.1702033231       -0.4275610942
 H          0.8557034336       -1.3388300938       -1.4681536460
 N          3.2667537134       -0.3432820141       -1.0682245428
 S          4.1505147711        1.0787824291       -0.9669395734
 O          3.4331904409        2.1266036683       -0.2787275365
 O          4.5602218308        1.3622571348       -2.3255972092
 C          5.5873907177        0.6033665059       -0.0246689024
 C          6.3119621158       -0.4931584374       -0.4494865960
 C          7.4364833970       -0.8711931730        0.2663887681
 C          7.8183261939       -0.1486968817        1.3870371065
 C          7.0833664900        0.9523683046        1.7984599493
 C          5.9565776785        1.3348315386        1.0870775773
 H          5.3521827575        2.1814194924        1.3725733799
 H          7.3812697475        1.5135885411        2.6695559620
 H          8.6937627860       -0.4451240088        1.9429457650
 H          8.0104694255       -1.7269347924       -0.0507562107
 H          5.9839507173       -1.0252982256       -1.3265875552
 H          2.9184064899       -0.4787205213       -2.0064943870
 H          3.5762231031        0.0167470286        1.5266166059
 H          1.8900118028       -0.4791963777        3.2638431757
 H         -0.3185433313       -1.3741165710        2.6244990324
 H         -1.6038438991       -2.5789267484        0.9989568821
 C         -1.2433674341       -2.8170312498       -1.0728407891
 C         -2.5310520419       -3.1571883950       -1.7602020676
 C         -1.5197832338       -2.2928675553       -2.4487496572
 H         -0.9644563814       -2.7146884708       -3.2742835609
 H         -1.7282346439       -1.2402989362       -2.5601747109
 H         -2.6774937546       -4.1655622664       -2.1165282105
 H         -3.4300934142       -2.6893802182       -1.3860760639
 H         -0.5098160643       -3.6144312566       -0.9995849183
