  62
        -98.94579308
 C         -1.0719075698       -1.2634157605       -0.0645378694
 C         -1.7830998898       -0.5963219098        0.9674877501
 C         -2.6119344598        0.5466306099        0.5643065393
 C         -2.6254450798        0.9199391590       -0.7278367810
 C         -3.4458515098        2.0453237586       -1.2871585018
 C         -4.8136024698        1.5472046382       -1.7748343513
 C         -5.5484331998        0.6691190690       -0.7616176207
 H         -4.9890330898       -0.2591075909       -0.6238483900
 H         -6.5107124798        0.4007971486       -1.2030371204
 C         -5.7788510698        1.3303759700        0.6045606688
 H         -6.8069164398        1.1360618602        0.9172706190
 H         -5.6665012498        2.4115175599        0.5157564181
 C         -4.8687069197        0.8154817508        1.7212459692
 H         -4.9053056697       -0.2763525692        1.7491079300
 H         -5.2612169397        1.1804224615        2.6739601889
 C         -3.3992696597        1.2475009007        1.6366036288
 H         -2.9205360497        0.9798152214        2.5832872090
 H         -3.3457248597        2.3315156106        1.5132520980
 H         -4.6643160999        0.9653944175       -2.6875393509
 H         -5.4285888999        2.4143839480       -2.0224665920
 H         -3.5773741098        2.8079111791       -0.5217148523
 H         -2.9042019099        2.4794790380       -2.1296608121
 O         -1.9163721898        0.2749577083       -1.6872113105
 C         -1.1359935798       -0.8400137415       -1.3932508397
 O         -0.5808777199       -1.3291482522       -2.3955333294
 H          1.4957388102       -0.9518581113       -1.1313706297
 C          1.9275563502       -1.2686028606       -0.1944311795
 C          1.1882733702       -2.0389144200        0.6922564611
 C          1.7826356203       -2.4455965691        1.8816399914
 C          3.0876890003       -2.0949665289        2.1747733911
 C          3.8166354203       -1.3146382295        1.2961895305
 C          3.2304479202       -0.8967771804        0.1070166902
 N          3.9445221502       -0.0875504810       -0.7952726304
 S          3.2034570002        1.2997744985       -1.3694025614
 O          2.2580149501        0.9826161578       -2.4066416912
 O          4.3047546801        2.1571252883       -1.7556815121
 C          2.3763632102        1.9813614396        0.0556957681
 C          3.1466202402        2.5873621703        1.0295249076
 C          2.5270984803        3.0707023211        2.1699002073
 C          1.1552204203        2.9331159112        2.3200021975
 C          0.3957270202        2.3258371205        1.3324995579
 C          1.0106282602        1.8430533097        0.1881358483
 H          0.4519890902        1.3638383491       -0.6007891314
 H         -0.6701132797        2.2095073206        1.4477849580
 H          0.6704317203        3.3018824019        3.2099596872
 H          3.1125411303        3.5488711217        2.9384471469
 H          4.2080520502        2.6844105702        0.8689668175
 H          4.8895234902        0.1176040092       -0.5018382506
 H          4.8321618803       -1.0294868493        1.5245222602
 H          3.5377026503       -2.4208171582        3.0997564413
 H          1.2093849803       -3.0329784686        2.5830169818
 C         -0.2303152198       -2.4492043802        0.3704958614
 H         -0.6897412397       -2.7999269495        1.3053576717
 C         -0.2169879498       -3.6024393309       -0.6139368377
 C          0.0371297002       -4.9905303305       -0.1105907567
 C         -1.3299538498       -4.6048225109       -0.5886045669
 H         -1.6851125298       -5.0010521716       -1.5279510166
 H         -2.1079125298       -4.4682411604        0.1485918030
 H          0.1819238303       -5.1221879098        0.9507400334
 H          0.6264469302       -5.6571328710       -0.7210880762
 H          0.1888069502       -3.3348723916       -1.5810205979
 O         -1.7309896397       -0.9494651289        2.1754538004
