  62
        -98.94416886
 C         -2.2275569238       -1.1172910514        0.2435992634
 C         -2.3407615590        0.0165760700       -0.5968916039
 C         -3.1757964670        1.1152252848       -0.0870078218
 C         -3.7472458750        1.0103911364        1.1257944843
 C         -4.6528187383        2.0351976185        1.7432132355
 C         -6.1227562947        1.7623519005        1.3942861065
 C         -6.3703656914        1.5216063376       -0.0947980470
 H         -5.8765242318        0.5939631365       -0.3927113620
 H         -7.4440443158        1.3710745041       -0.2256491467
 C         -5.8989040808        2.6611592483       -1.0087728303
 H         -6.6782013088        2.8644954082       -1.7461791591
 H         -5.7598775898        3.5717480989       -0.4248850529
 C         -4.6172882144        2.3598069511       -1.7877487969
 H         -4.4949078229        3.1307671028       -2.5532481307
 H         -4.7175477294        1.4007698917       -2.3021102378
 C         -3.3260030535        2.3296467605       -0.9601725020
 H         -2.4830936202        2.3047959662       -1.6574353384
 H         -3.2470122712        3.2423241162       -0.3655570910
 H         -6.7199602739        2.6111915383        1.7319956888
 H         -6.4494199085        0.8763231868        1.9433170077
 H         -4.3624682305        3.0248341046        1.3955093656
 H         -4.5309147919        1.9915308303        2.8268425765
 O         -3.5970295212       -0.0812269483        1.9170339996
 C         -2.8429197237       -1.1627230041        1.4995517722
 O         -2.7982215780       -2.0993300459        2.3214638388
 O         -1.7859310161        0.1316734936       -1.7236322865
 C         -1.3967626579       -2.3423598847       -0.1154645606
 C          0.0621079569       -2.0437053870        0.1354532625
 C          0.7188314271       -2.5881910434        1.2332008489
 C          2.0383786442       -2.2651314800        1.4964694160
 C          2.7262726239       -1.3872035891        0.6775516301
 C          2.0745550645       -0.8293134194       -0.4139906104
 C          0.7589945567       -1.1707209805       -0.6878469122
 H          0.2529554777       -0.7146796895       -1.5255202900
 N          2.7575398503        0.0913125354       -1.2358491539
 S          3.3290383767        1.4733332236       -0.4639792051
 O          2.5345718726        1.7985246960        0.6993115826
 O          3.4089492544        2.4862923770       -1.4940714876
 C          4.9796801254        1.0222815960        0.0293534797
 C          5.3444459365        1.0872399266        1.3597271502
 C          6.6367063340        0.7352608408        1.7178469903
 C          7.5358905226        0.3275945474        0.7443647335
 C          7.1542364844        0.2700851465       -0.5879917131
 C          5.8644177949        0.6212588173       -0.9527357087
 H          5.5271963783        0.5944995393       -1.9753888345
 H          7.8564384825       -0.0473548939       -1.3419146822
 H          8.5402533843        0.0533072038        1.0260128740
 H          6.9348950123        0.7795546192        2.7530404484
 H          4.6084509244        1.4041988353        2.0815066510
 H          2.2162475752        0.3602424890       -2.0465706319
 H          3.7509834627       -1.1232555891        0.8829867411
 H          2.5349355838       -2.6966722458        2.3521901198
 H          0.1774067715       -3.2506441443        1.8932522173
 H         -1.7042661772       -3.1244395010        0.5911422209
 C         -1.6476851567       -2.8441481179       -1.5232383639
 C         -1.2647947422       -4.2507770039       -1.8683938582
 C         -2.7106914616       -3.8742523634       -1.7526971641
 H         -3.3032092823       -3.8105483362       -2.6530951138
 H         -3.2623236644       -4.2237786513       -0.8918907411
 H         -0.8618784319       -4.4485439755       -2.8497089536
 H         -0.8357922697       -4.8573336198       -1.0852455554
 H         -1.5235115015       -2.0857544276       -2.2844681763
