  62
        -98.93892293
 C          1.8234522693        0.9926684394       -0.2039363181
 C          2.9706003849        1.0869084466        0.6247904357
 C          4.2075226514        0.4332360082        0.1580626067
 C          4.1897286175       -0.2057987696       -1.0260526098
 C          5.3006411107       -0.9712988527       -1.6942993555
 C          5.5359944077       -2.3505123837       -1.0583447453
 C          5.5479748212       -2.3601350361        0.4679705707
 H          4.5959819071       -1.9735587371        0.8367202484
 H          5.6208669638       -3.4016669040        0.7923218564
 C          6.6956149810       -1.5878889662        1.1145715793
 H          7.6454795099       -1.9970411300        0.7632001772
 H          6.6370673281       -1.7638264740        2.1917670682
 C          6.7004542906       -0.0752900890        0.8815371403
 H          7.0755363605        0.1692496797       -0.1086556787
 H          7.4046876573        0.3610122276        1.5959251963
 C          5.3581627560        0.6090466676        1.1192769026
 H          4.9767976176        0.3193577734        2.1051068003
 H          5.5244898488        1.6911621368        1.1829344410
 H          4.7349782977       -3.0165598114       -1.3888658109
 H          6.4805004502       -2.7470484546       -1.4347699820
 H          5.0001041017       -1.1153718285       -2.7345444685
 H          6.2138155295       -0.3836130334       -1.6923365696
 O          3.0666689674       -0.2679513412       -1.7940554678
 C          1.8681521953        0.3099299544       -1.4184271039
 O          0.9540730823        0.1372977158       -2.2516219644
 O          2.9671726638        1.7012132622        1.7253641855
 C          0.5627848400        1.6751821163        0.2994224347
 C         -0.4019682731        0.6869639797        0.9096229077
 C         -0.7548387454        0.7663497873        2.2514059612
 C         -1.6650175737       -0.1232235296        2.7965501360
 C         -2.2420026467       -1.1077244907        2.0149566443
 C         -1.8898914913       -1.1979777331        0.6744725238
 C         -0.9830432240       -0.3023163353        0.1287436937
 H         -0.7113558644       -0.3816980073       -0.9133739067
 N         -2.4879536488       -2.1866874035       -0.1358886793
 S         -4.1605921265       -2.0984965912       -0.2316441258
 O         -4.7339025572       -2.6806056608        0.9559841958
 O         -4.5178884784       -2.7295266871       -1.4822297892
 C         -4.5034898864       -0.3488864158       -0.2791865059
 C         -5.0052458627        0.2847054052        0.8392077166
 C         -5.1832829271        1.6584100486        0.8060342886
 C         -4.8536330811        2.3705086257       -0.3364066395
 C         -4.3527851984        1.7185073514       -1.4528256663
 C         -4.1706674342        0.3458403014       -1.4249873383
 H         -3.7845681371       -0.1937607341       -2.2753816720
 H         -4.0980438034        2.2725399607       -2.3423083651
 H         -4.9882670693        3.4405267539       -0.3579337068
 H         -5.5729030440        2.1689209171        1.6717962419
 H         -5.2479740328       -0.3071393528        1.7062674141
 H         -2.0915230764       -2.2169710986       -1.0649856405
 H         -2.9585589400       -1.8057415500        2.4169937821
 H         -1.9285049026       -0.0489016336        3.8404478833
 H         -0.3017061497        1.5264230567        2.8707838466
 H          0.9037199770        2.3461665222        1.0989417029
 C         -0.1369353675        2.5051485119       -0.7603509235
 C         -1.0874095982        3.5794969166       -0.3284526145
 C          0.2352332557        3.9460002285       -0.9305946407
 H          0.2555852909        4.3572255982       -1.9287083415
 H          1.0005065251        4.3446280522       -0.2805394005
 H         -1.9807564173        3.7387740074       -0.9114231267
 H         -1.2207673328        3.7307927131        0.7317067381
 H         -0.3791797066        1.9457643603       -1.6542866399
