  62
        -98.94740953
 C          2.5642179275        0.1329987143       -0.4009624904
 C          2.1702145748        0.7047856641        0.8330219285
 C          1.7289546198        2.1056740915        0.7780653291
 C          1.7055332904        2.7433687240       -0.4061960709
 C          1.2548152873        4.1605198838       -0.6128286187
 C         -0.2391071191        4.2365385463       -0.9530692530
 C         -1.1370348751        3.4568811663        0.0079422044
 H         -2.1709102113        3.6386450385       -0.2963642306
 H         -0.9587009297        2.3854000342       -0.1160550988
 C         -0.9653950610        3.8303380470        1.4869411441
 H         -0.4816839533        4.8048843133        1.5710242301
 H         -1.9552886633        3.9169620222        1.9395570303
 C         -0.1898377523        2.7993855435        2.3097255215
 H         -0.3458594302        3.0202792328        3.3694586685
 H         -0.5951011578        1.8036746759        2.1141421720
 C          1.3249165323        2.7570008146        2.0704854725
 H          1.7392846388        3.7658239990        2.1394579025
 H          1.7689953558        2.1464450829        2.8623162507
 H         -0.3877908849        3.8331894859       -1.9576403124
 H         -0.5361948800        5.2873935546       -0.9587766662
 H          1.4620036917        4.7343051729        0.2886012160
 H          1.8272448130        4.5819744463       -1.4414033437
 O          2.0783685301        2.1561307025       -1.5735323867
 C          2.4979114393        0.8369580871       -1.6016282492
 O          2.7938525684        0.4141896650       -2.7398216306
 H          0.4128951512       -1.0563189263       -0.9870013377
 C          0.5934311461       -1.9060024512       -0.3437628514
 C          1.8925111705       -2.2090098772        0.0415435334
 C          2.1008239572       -3.3170615704        0.8530076615
 C          1.0279670692       -4.0768631930        1.2870396161
 C         -0.2676412757       -3.7422866498        0.9385716685
 C         -0.4845010807       -2.6447023269        0.1133844864
 N         -1.7838239003       -2.2672546152       -0.2790234630
 S         -2.0909634994       -0.6015730939       -0.3009768662
 O         -1.6444082442       -0.0599576609       -1.5611879440
 O         -1.5610322852        0.0108114393        0.8939634487
 C         -3.8736240175       -0.5981953456       -0.2571670717
 C         -4.5586142189       -0.9955140314       -1.3902279977
 C         -5.9436123963       -1.0235717134       -1.3597932841
 C         -6.6168256873       -0.6548912417       -0.2040960695
 C         -5.9158268477       -0.2550551334        0.9233998093
 C         -4.5298269009       -0.2271514598        0.9005635727
 H         -3.9409352431        0.0803040973        1.7498432737
 H         -6.4413215741        0.0346747168        1.8189930191
 H         -7.6948923285       -0.6769525126       -0.1836148550
 H         -6.4919860653       -1.3313786579       -2.2353988620
 H         -3.9922805239       -1.2630427485       -2.2670649735
 H         -2.4982340552       -2.7534930347        0.2475086455
 H         -1.1038975195       -4.3215482473        1.2999229398
 H          1.2029194365       -4.9322226179        1.9219189829
 H          3.1018283184       -3.5787946949        1.1548626142
 C          3.0058593672       -1.3185510793       -0.4569121994
 H          3.1715700059       -1.5442144843       -1.5215037706
 C          4.3090784055       -1.5075111891        0.2919257119
 C          5.2897547162       -2.5530053017       -0.1449458932
 C          5.5887223925       -1.1028386281       -0.3740226890
 H          6.3536539040       -0.6299867133        0.2232354439
 H          5.5198240925       -0.7165831271       -1.3808757534
 H          5.8556616842       -3.0767287107        0.6106672060
 H          5.0296115293       -3.1559559151       -1.0018504229
 H          4.2098095534       -1.3045586142        1.3520316008
 O          2.2036919495        0.0826754884        1.9274852247
