  62
        -98.94060142
 C         -1.8334536526       -1.3603711308        0.4930519145
 C         -1.9057264856       -0.1018363530        1.1444751959
 C         -3.1723700463        0.6264546253        1.0182905125
 C         -4.1710454761        0.0982443706        0.2877148865
 C         -5.5356254062        0.6987641111        0.0833801627
 C         -5.5971323650        1.7492950601       -1.0338654173
 C         -4.9441732220        3.0913584255       -0.7014114754
 H         -5.2501661222        3.7968844494       -1.4764276753
 H         -5.3369774486        3.4594067970        0.2470122192
 C         -3.4106993548        3.0536406885       -0.6459769210
 H         -3.0492721357        2.1528283001       -1.1473911224
 H         -3.0066294554        3.9089394156       -1.1920526076
 C         -2.8281353110        3.1008464867        0.7660735011
 H         -1.7401364170        3.0400670610        0.6902122339
 H         -3.0794171302        4.0539525945        1.2366708574
 C         -3.2947244044        1.9643270769        1.6840437776
 H         -4.3236858405        2.1353162224        2.0007670467
 H         -2.6540351448        1.9537030688        2.5696041255
 H         -5.1365740273        1.3315488519       -1.9320092497
 H         -6.6521352208        1.9279502158       -1.2540985411
 H         -5.8857344584        1.1386736355        1.0177957564
 H         -6.2001532643       -0.1261591580       -0.1825630635
 O         -4.0518590958       -1.0918991419       -0.3539239943
 C         -2.8866484168       -1.8496508459       -0.2818370175
 O         -2.9396518889       -2.9025933202       -0.9413049905
 O         -0.9540964409        0.3808703492        1.8159878144
 C         -0.5485284434       -2.1456533695        0.6822699319
 C          0.4708859101       -1.8010437535       -0.3727949147
 C          0.1411573487       -1.7878757949       -1.7247366335
 C          1.0980333258       -1.4791654173       -2.6740259020
 C          2.3924844983       -1.1660843569       -2.2956545916
 C          2.7312473764       -1.1732564365       -0.9480045914
 C          1.7707806416       -1.4962459587        0.0018454974
 H          2.0476424411       -1.4921889500        1.0451556544
 N          4.0411516671       -0.8785157997       -0.5334285730
 S          4.3012849486        0.2298761837        0.6957371798
 O          5.7252493721        0.4784460405        0.6602011956
 O          3.7740659076       -0.2769445228        1.9353355072
 C          3.4249351034        1.6887192931        0.1641200222
 C          4.1181553114        2.6126800872       -0.5952747445
 C          3.4490129081        3.7206259817       -1.0873324101
 C          2.0971027374        3.8804671963       -0.8224059288
 C          1.4175285459        2.9431106122       -0.0612739183
 C          2.0802287085        1.8337569974        0.4408690799
 H          1.5592146077        1.1021004557        1.0385000429
 H          0.3660564550        3.0593799203        0.1493201405
 H          1.5695536287        4.7387965082       -1.2076478164
 H          3.9790739684        4.4519136748       -1.6759901042
 H          5.1694822725        2.4505302981       -0.7705706511
 H          4.6835383481       -0.7074485282       -1.2942491201
 H          3.1366671769       -0.9223002049       -3.0384938140
 H          0.8323041547       -1.4775624529       -3.7203528337
 H         -0.8682104341       -2.0333459799       -2.0199613067
 H         -0.1445799012       -1.7945299035        1.6464529596
 C         -0.7717830770       -3.6462978566        0.8116829991
 C         -0.3563590111       -4.6380960374       -0.2286326642
 C          0.3939903730       -4.5561297702        1.0646472674
 H          0.2811822339       -5.3535608116        1.7835031381
 H          1.3804542673       -4.1164523686        1.0446866613
 H         -1.0078806946       -5.4806369368       -0.4023883669
 H          0.1245297820       -4.2710570243       -1.1213813747
 H         -1.6881148783       -3.8721946749        1.3478476342
