  62
        -98.93535802
 C          2.2130403491        1.0808000528       -0.0246903167
 C          2.9398131641        0.4585039024        1.0206742978
 C          3.8155472877       -0.6737038367        0.6646455436
 C          3.8618351348       -1.0713795136       -0.6200135751
 C          4.7031599218       -2.1601707196       -1.2307593014
 C          6.1741093145       -1.7461192217       -1.4015035802
 C          6.7792957255       -1.0122611393       -0.2075589970
 H          7.7787123310       -0.6767770534       -0.4967392322
 H          6.1864655640       -0.1202417728        0.0028235111
 C          6.9163971945       -1.8426751847        1.0662647357
 H          7.4357949633       -1.2239327728        1.8024170672
 H          7.5446794876       -2.7122446096        0.8608976426
 C          5.6076618966       -2.3274940912        1.6933935116
 H          5.8426332974       -2.6875232238        2.6993186401
 H          5.2027158377       -3.1768392695        1.1496174037
 C          4.5401224059       -1.2500092270        1.8570427735
 H          3.7547530546       -1.6349792289        2.5190717136
 H          4.9713183565       -0.3949920103        2.3900558390
 H          6.2384780070       -1.0822052962       -2.2670785782
 H          6.7606264116       -2.6404557692       -1.6181611833
 H          4.2825227979       -2.3653718428       -2.2178003242
 H          4.6207570743       -3.0689450828       -0.6417993409
 O          3.1278094988       -0.4601863248       -1.5915509401
 C          2.2898950948        0.6128063750       -1.3357623933
 O          1.6935389804        1.0306722175       -2.3473472387
 O          2.8747388944        0.8463771647        2.2185341756
 C          1.3428214572        2.2649085254        0.3612527981
 C         -0.0739586064        1.8245760436        0.6262908558
 C         -0.6980900257        2.1007149903        1.8365908877
 C         -1.9925558967        1.6716934371        2.0748212416
 C         -2.6900371035        0.9639205936        1.1124978456
 C         -2.0722271179        0.6761518865       -0.0977379992
 C         -0.7749423551        1.1060426399       -0.3332497658
 H         -0.2971001337        0.8779864493       -1.2751994906
 N         -2.7738751627       -0.0404199024       -1.0863181205
 S         -3.4092783195       -1.5316792168       -0.6395857034
 O         -2.6471284112       -2.1295541729        0.4332781544
 O         -3.5024710704       -2.2929349285       -1.8661718683
 C         -5.0520213894       -1.1354016182       -0.0777822719
 C         -5.8996436002       -0.4877196219       -0.9552936655
 C         -7.1821242955       -0.1720178262       -0.5361941472
 C         -7.5939511807       -0.5102537162        0.7444668057
 C         -6.7322707112       -1.1638580129        1.6119796899
 C         -5.4473219130       -1.4814960663        1.1994588694
 H         -4.7401790360       -1.9837220793        1.8404162395
 H         -7.0541329396       -1.4263350946        2.6069576600
 H         -8.5925716677       -0.2630089075        1.0683507892
 H         -7.8550700282        0.3360117373       -1.2080254266
 H         -5.5407963638       -0.2472040264       -1.9421155295
 H         -2.2542399012       -0.1293640490       -1.9486921559
 H         -3.6979823460        0.6272009305        1.2917505520
 H         -2.4641061314        1.8909618156        3.0204749864
 H         -0.1549026689        2.6394705194        2.5990642609
 H          1.7627057808        2.6133973313        1.3180226378
 C          1.4394357289        3.4213492799       -0.6253539683
 C          0.3040221094        3.8857745565       -1.4829606203
 C          0.7505941463        4.7193358604       -0.3221240797
 H          1.2754534308        5.6426355989       -0.5143252880
 H          0.1091978772        4.7454960315        0.5459353738
 H          0.5393416999        4.2143887449       -2.4838439212
 H         -0.6411306917        3.3720691159       -1.4071246305
 H          2.4278520287        3.4885788681       -1.0690715289
