  62
        -98.94280264
 C          2.6718327721        0.8914259448        0.0719546838
 C          3.1895493297       -0.0161124723        1.0261460250
 C          3.6018926852       -1.3246373408        0.5068332222
 C          3.4786400972       -1.5903558575       -0.8065784996
 C          3.8708374874       -2.8723854330       -1.4897329172
 C          2.7975728040       -3.9677321680       -1.4215453825
 C          2.6218897644       -4.6215688146       -0.0503106477
 H          2.0019213042       -5.5082582566       -0.1961980546
 H          3.5916582725       -4.9575936549        0.3180784769
 C          1.9539763028       -3.7215809745        0.9987532100
 H          1.4518040377       -2.8905057156        0.4962273406
 H          1.1802930504       -4.2868893560        1.5236021453
 C          2.9080976524       -3.1657894544        2.0565700856
 H          3.3116908695       -3.9878745213        2.6514844559
 H          2.3381295068       -2.5150047230        2.7248071281
 C          4.0787550823       -2.3527107037        1.4882205925
 H          4.5619990431       -1.8250756774        2.3140708154
 H          4.8063738068       -3.0160622753        1.0218224598
 H          3.0781550610       -4.7440001407       -2.1371905994
 H          1.8438558703       -3.5449082936       -1.7481650796
 H          4.8018559444       -3.2462428298       -1.0628554475
 H          4.0427939541       -2.6246864881       -2.5393553533
 O          2.9818024320       -0.6875044576       -1.6940447634
 C          2.5412356053        0.5611092590       -1.2771070024
 O          2.0713373500        1.2693800323       -2.1878164277
 O          3.2945017580        0.2521195036        2.2535079585
 C          2.1873809199        2.2527460813        0.5373789544
 C          0.7187155371        2.4036287308        0.2238375445
 C          0.1709917481        3.5306001075       -0.3739585395
 C         -1.1814015736        3.5814109989       -0.6654174089
 C         -2.0166885992        2.5222151565       -0.3618018520
 C         -1.4818209143        1.3945191289        0.2468692115
 C         -0.1283042147        1.3491142736        0.5413703577
 H          0.2861782310        0.4651618917        1.0123733725
 N         -2.3187989050        0.3093889257        0.5824736432
 S         -3.1654972849       -0.4945077049       -0.6337716515
 O         -2.6380665333       -1.8396669428       -0.7381736391
 O         -3.1720459549        0.2916433698       -1.8422527588
 C         -4.8167256910       -0.5647386221        0.0381862471
 C         -5.3573382186        0.5818804669        0.5862386822
 C         -6.6475865018        0.5409039764        1.0900128796
 C         -7.3735260096       -0.6396540866        1.0374300416
 C         -6.8166185375       -1.7831206319        0.4863755201
 C         -5.5260367319       -1.7480450929       -0.0191859418
 H         -5.0513768948       -2.6143640700       -0.4507520699
 H         -7.3805815634       -2.7012131884        0.4487494292
 H         -8.3775805059       -0.6687589261        1.4302594426
 H         -7.0811154456        1.4282814168        1.5224751284
 H         -4.7611769497        1.4787686207        0.6188920651
 H         -1.8384710186       -0.3856313629        1.1373118970
 H         -3.0621950238        2.5486215367       -0.6210801045
 H         -1.5905057100        4.4592401311       -1.1421278119
 H          0.8052450059        4.3641481691       -0.6270202533
 H          2.3079586243        2.2480178674        1.6312099029
 C          3.0501781710        3.3530838036       -0.0425926645
 C          3.2285039854        4.6433626950        0.6988769184
 C          4.3604074514        3.6654456242        0.6139959277
 H          5.2065193648        3.9046692007       -0.0124245367
 H          4.6181725908        3.1001075522        1.4976923786
 H          3.3004726655        5.5584326886        0.1307204948
 H          2.7214776756        4.7494645150        1.6458539188
 H          3.0132146881        3.3819330000       -1.1259608903
