  62
        -98.94579000
 C         -2.1934333427       -1.1691806308        0.1979156113
 C         -1.8626627248       -0.2477733088       -0.8256797228
 C         -2.6338372981        1.0055947512       -0.8294724840
 C         -3.5802784310        1.2024028513        0.1065672647
 C         -4.4138809316        2.4439292002        0.2369761702
 C         -3.7542180527        3.4654640424        1.1736698076
 C         -2.2831720775        3.7330269782        0.8551418404
 H         -1.9285448288        4.4896986847        1.5586160311
 H         -1.7065212231        2.8246669822        1.0468085803
 C         -2.0214439236        4.2060142502       -0.5817075623
 H         -1.3236895347        5.0455875873       -0.5512441188
 H         -2.9484526391        4.5708656447       -1.0252939384
 C         -1.4025442816        3.1457345711       -1.4942698812
 H         -0.5227154687        2.7194175219       -1.0063331118
 H         -1.0611689729        3.6427404599       -2.4060872899
 C         -2.3314083806        1.9998839123       -1.9158291481
 H         -3.2552756192        2.4111257052       -2.3275656111
 H         -1.8274696634        1.4334611998       -2.7044628321
 H         -4.3156238734        4.3997173995        1.1171097525
 H         -3.8210925294        3.0913667573        2.1981268147
 H         -4.5606408882        2.8815382484       -0.7485742972
 H         -5.3851015035        2.1629469211        0.6478487179
 O         -3.8588063403        0.2989072917        1.0813058999
 C         -3.1729811972       -0.9039566780        1.1538147764
 O         -3.5180959181       -1.6369210629        2.1035865493
 H         -0.1756759142       -0.6323124535        1.6580722307
 C          0.5156680603       -1.2967866298        1.1533509517
 C          0.0140079924       -2.3304427670        0.3731769206
 C          0.9166732570       -3.1735233454       -0.2634157543
 C          2.2802923974       -2.9825277118       -0.1201092939
 C          2.7748827171       -1.9457583011        0.6489114023
 C          1.8807799662       -1.0922707484        1.2831988707
 N          2.3726082145       -0.0143319781        2.0381640069
 S          3.6290987894        0.8800729638        1.3843499507
 O          4.8859048926        0.2634703594        1.7323020368
 O          3.4349447108        2.2240902995        1.8841295140
 C          3.4116473645        0.8287763965       -0.3863370322
 C          4.4766010677        0.4772581115       -1.1908426549
 C          4.2913978888        0.4281190587       -2.5631420397
 C          3.0481864454        0.7186755394       -3.1032408913
 C          1.9881306164        1.0716309319       -2.2824978753
 C          2.1722582397        1.1333892907       -0.9116860195
 H          1.3598601403        1.3982204743       -0.2530431561
 H          1.0119120417        1.2715086485       -2.6933378826
 H          2.8997348664        0.6665287536       -4.1702366294
 H          5.1133530212        0.1547511056       -3.2050241716
 H          5.4208119187        0.2426313702       -0.7265873036
 H          1.6544233285        0.5872816837        2.4133541025
 H          3.8335904148       -1.7826466105        0.7711209898
 H          2.9682768556       -3.6478236316       -0.6185041698
 H          0.5513838270       -3.9822265567       -0.8744313568
 C         -1.4818297812       -2.5074615368        0.2700264985
 H         -1.8296538924       -2.9864219091        1.1977541184
 C         -1.8984128053       -3.3689823339       -0.9060708451
 C         -2.0095153695       -4.8559863438       -0.7593022468
 C         -3.2474253985       -4.0201955922       -0.8782976829
 H         -3.8184890280       -4.0661385435       -1.7934305331
 H         -3.8514969760       -3.8679858980        0.0048187125
 H         -1.7805895815       -5.2835929270        0.2052520343
 H         -1.7332577145       -5.4794077392       -1.5963561024
 H         -1.5548496349       -2.9703072646       -1.8536127966
 O         -0.9753248400       -0.4569760549       -1.6907383954
