  62
        -98.93966371
 C         -2.5567224468       -0.2567465814        0.0603096610
 C         -2.3382263853       -1.2935681222       -0.8729029419
 C         -1.6849088899       -2.5115724973       -0.3650577426
 C         -1.3385338459       -2.5696292756        0.9330563404
 C         -0.5828130149       -3.6653405014        1.6332094942
 C          0.9269893784       -3.3667349145        1.6148411013
 C          1.6748156784       -3.9206971866        0.4037341938
 H          2.7046094176       -3.5614070588        0.4682816705
 H          1.6980055118       -5.0118066197        0.4586214651
 C          1.0999728646       -3.5068035408       -0.9531788586
 H          0.8450767290       -2.4441824916       -0.9314119250
 H          1.8860063148       -3.6258344968       -1.7023824849
 C         -0.1174621877       -4.3441161826       -1.3733550905
 H          0.0360492088       -4.7180159374       -2.3880612457
 H         -0.1868113243       -5.2193989325       -0.7273306112
 C         -1.4596080260       -3.5999129066       -1.3798264961
 H         -2.2711674567       -4.3306484263       -1.2895156770
 H         -1.5922509262       -3.1044855864       -2.3472256680
 H          1.0575226780       -2.2817795614        1.6500628748
 H          1.3800843586       -3.7856268562        2.5159716498
 H         -0.8006015426       -4.6327394590        1.1897869813
 H         -0.9266806527       -3.6661367942        2.6695969997
 O         -1.5997567008       -1.5605953155        1.8082800656
 C         -2.1702571050       -0.3718259206        1.3957116595
 O         -2.2987757092        0.4808929793        2.2957470154
 O         -2.6631530428       -1.1985618874       -2.0907240360
 C         -3.1009966156        1.0733127700       -0.4257621286
 C         -2.0583784626        2.1481960093       -0.2232792112
 C         -2.3635053066        3.4613682516        0.1084349242
 C         -1.3518420519        4.3929663412        0.2782751920
 C         -0.0229770991        4.0356356331        0.1487363353
 C          0.2928246701        2.7205011983       -0.1798591179
 C         -0.7227482418        1.8074826195       -0.3977516733
 H         -0.4659395604        0.7993520398       -0.6888851710
 N          1.6345632256        2.2994195601       -0.2419170203
 S          2.0228831100        0.6775035178       -0.4046655039
 O          1.7591353025        0.2039540749       -1.7480816695
 O          1.4083312358       -0.0503362923        0.6752060605
 C          3.7837229716        0.7684883056       -0.1428502520
 C          4.2463511410        0.9130794639        1.1513617159
 C          5.6112908129        1.0102978098        1.3691130410
 C          6.4870471763        0.9618114592        0.2943444190
 C          6.0088304447        0.8128772681       -0.9985448112
 C          4.6441060141        0.7161901496       -1.2225197857
 H          4.2261068775        0.5905103133       -2.2083589839
 H          6.6919770921        0.7711947475       -1.8315083570
 H          7.5490624301        1.0371250064        0.4665999216
 H          5.9861373657        1.1226567594        2.3736707502
 H          3.5272797009        0.9360123641        1.9540524988
 H          2.2642899287        2.9242685944       -0.7217495340
 H          0.7640124755        4.7557975019        0.3069404558
 H         -1.6045596122        5.4115988954        0.5308514654
 H         -3.3926324349        3.7551772500        0.2372391085
 H         -3.2597115802        0.9480756140       -1.5084009261
 C         -4.4277574201        1.3973524734        0.2285937927
 C         -5.4748757806        2.1679163561       -0.5173897398
 C         -5.6627041362        0.7038659624       -0.2609745442
 H         -6.4010429449        0.3937796079        0.4629361632
 H         -5.5480758327        0.0189471184       -1.0886668372
 H         -6.0901376315        2.8646890305        0.0316318801
 H         -5.2454261604        2.4774233968       -1.5259570587
 H         -4.3326912559        1.5577576812        1.2965051492
