  62
        -98.93368250
 C         -1.9136015188       -0.7313000707        0.7394661505
 C         -2.0044484890       -0.1474626606       -0.5474872494
 C         -2.1263424590        1.3170784194       -0.5765556293
 C         -2.0833721589        2.0074800093        0.5763563108
 C         -2.2305667289        3.4968947193        0.6918179009
 C         -3.6988731489        3.8993075892        0.8908091311
 C         -4.6580380790        3.2476123493       -0.1052691188
 H         -4.6738591090        2.1696382093        0.0706962411
 H         -5.6592233190        3.6250386692        0.1133943614
 C         -4.3203966792        3.5147541894       -1.5785943788
 H         -5.2402328293        3.7729716895       -2.1073124087
 H         -3.6500958593        4.3714785995       -1.6548401388
 C         -3.7034753393        2.3232686095       -2.3134912290
 H         -4.3246958193        1.4372101295       -2.1616754390
 H         -3.7049622194        2.5458360396       -3.3837068190
 C         -2.2623650692        1.9714505795       -1.9223730392
 H         -1.6330954493        2.8621084295       -1.9799224392
 H         -1.8865886493        1.2411629896       -2.6450478493
 H         -4.0022054788        3.6087459191        1.8992911412
 H         -3.7720163290        4.9855681392        0.8131142312
 H         -1.6482338688        3.8318562092        1.5521184309
 H         -1.8307611991        3.9636241294       -0.2064093591
 O         -1.9513403487        1.4142632192        1.7919005107
 C         -1.8638134287        0.0370820992        1.9007999706
 O         -1.7526630685       -0.3804661109        3.0740558405
 O         -1.9884315991       -0.8074337605       -1.6176571495
 C         -1.7544173488       -2.2413117007        0.8931947703
 C         -0.5981431589       -2.6542936306        0.0120346101
 C         -0.5899941690       -3.5608845305       -1.0389805099
 C          0.5606954809       -3.7643845204       -1.7846901101
 C          1.7203567809       -3.0625089304       -1.5230338802
 C          1.7310869110       -2.1594381005       -0.4654039701
 C          0.5929353911       -1.9890636606        0.2997934301
 H          0.6189324712       -1.2818958507        1.1181704001
 N          2.8873787811       -1.4225901405       -0.1490814802
 S          2.6771789111        0.1550067094        0.4204579200
 O          2.4663158013        0.1063257593        1.8468281900
 O          1.6747272410        0.8475857595       -0.3576989998
 C          4.2969981810        0.8236610395        0.0859694298
 C          4.4916919509        1.6176819996       -1.0280292901
 C          5.7643001008        2.0993312896       -1.2937003002
 C          6.8149595710        1.7770158096       -0.4480675904
 C          6.6039459411        0.9788601995        0.6667005995
 C          5.3340222012        0.4959030094        0.9392623397
 H          5.1180997413       -0.1186644706        1.7975656996
 H          7.4222832512        0.7320912494        1.3235074194
 H          7.8040772009        2.1523363396       -0.6576478405
 H          5.9301542207        2.7223456497       -2.1577209402
 H          3.6425651708        1.8450800096       -1.6525791200
 H          3.5824048810       -1.4572087604       -0.8830350203
 H          2.6033527909       -3.2034498404       -2.1274389503
 H          0.5398534908       -4.4687208404       -2.6026933102
 H         -1.4769388490       -4.0989372605       -1.3186528599
 H         -1.4185300286       -2.3877157108        1.9343075103
 C         -3.1245429588       -2.8950366508        0.8070901305
 C         -3.8323835889       -3.2650304207       -0.4583498295
 C         -3.3849037488       -4.3374113807        0.4916164104
 H         -4.1436899587       -4.8432228008        1.0705609104
 H         -2.5519829388       -4.9679841907        0.2285842402
 H         -4.8894909789       -3.0490237207       -0.5204109993
 H         -3.3114000190       -3.1102539406       -1.3888154395
 H         -3.7546749987       -2.4675446708        1.5853406806
