  62
        -98.93586297
 C         -2.7216903331       -1.1281616698       -0.3300570523
 C         -2.4566722926        0.0321289130       -1.0982134443
 C         -3.3288080975        1.1889195132       -0.8361050254
 C         -4.3036321763        1.0934211439        0.0850043051
 C         -5.2188583140        2.2116936886        0.4895278877
 C         -4.6424287124        3.0005086683        1.6736124586
 C         -3.1844526750        3.4199981544        1.4853849346
 H         -2.8965765173        3.9975714793        2.3664619167
 H         -2.5558542738        2.5263960046        1.4689062967
 C         -2.9207382554        4.2497878035        0.2210428638
 H         -3.8580722123        4.6633686360       -0.1526090235
 H         -2.2765875240        5.0915961626        0.4833756769
 C         -2.2194097974        3.4862328423       -0.9038624953
 H         -1.3287655157        2.9914047198       -0.5083352197
 H         -1.8869849190        4.2116606403       -1.6510603488
 C         -3.0708658453        2.4381151494       -1.6317430201
 H         -4.0109179652        2.8883644385       -1.9565210188
 H         -2.5176130859        2.1189773824       -2.5199090330
 H         -5.2607000654        3.8860266981        1.8317398636
 H         -4.7061267118        2.3771247686        2.5685220131
 H         -5.3741804842        2.8732600011       -0.3604680724
 H         -6.1775757485        1.7812424637        0.7835206072
 O         -4.5359355761       -0.0390455224        0.7962982735
 C         -3.7530868786       -1.1645901772        0.6141047116
 O         -4.0734846497       -2.1303730739        1.3353708369
 H          0.0307084975       -0.5618870879       -0.5553475735
 C          0.2414889989       -1.3220483290        0.1828954085
 C         -0.6641612223       -2.3596870160        0.3584655608
 C         -0.3770078809       -3.3401200643        1.2998971352
 C          0.7886130488       -3.2793209011        2.0446565915
 C          1.6870334830       -2.2423167833        1.8691102397
 C          1.4078481291       -1.2560185891        0.9313020513
 N          2.3014563063       -0.1784456775        0.7499591666
 S          3.9136194037       -0.5900253967        0.4484382508
 O          3.9898367077       -1.5336109828       -0.6457140750
 O          4.5136202580       -1.0160499411        1.6876249881
 C          4.5800405736        0.9881407680       -0.0370179555
 C          4.9400203729        1.8863843021        0.9493896441
 C          5.4302844932        3.1277784496        0.5770140414
 C          5.5505714533        3.4482780999       -0.7671875988
 C          5.1856805022        2.5356222728       -1.7454542903
 C          4.6930276143        1.2926159550       -1.3799311056
 H          4.4037358338        0.5501543893       -2.1066714065
 H          5.2819672146        2.7866098380       -2.7895600924
 H          5.9334141103        4.4147272605       -1.0548692612
 H          5.7167867640        3.8397830881        1.3340926787
 H          4.8367166665        1.5900715738        1.9800884643
 H          1.9725946866        0.4394154026        0.0183855840
 H          2.6023637674       -2.1903612859        2.4358466436
 H          1.0009067090       -4.0485930539        2.7719099791
 H         -1.0779122497       -4.1481221987        1.4524249572
 C         -1.9245091325       -2.4164682913       -0.4663486680
 H         -2.5690170521       -3.1962249889       -0.0317502736
 C         -1.6704398228       -2.7985881109       -1.9202255969
 C         -0.3108880515       -2.8793655296       -2.5417082173
 C         -1.0709419082       -4.1348505815       -2.2450538957
 H         -1.4810941185       -4.7035742249       -3.0657272997
 H         -0.7291015472       -4.7374544746       -1.4166218569
 H         -0.2135648745       -2.5607903022       -3.5685891349
 H          0.5533306360       -2.6530489329       -1.9360373909
 H         -2.4692874046       -2.4582336649       -2.5712221718
 O         -1.5433497578        0.1232990927       -1.9601401945
