  62
        -98.93443924
 C         -1.9967948425       -0.5766642930        0.9644100247
 C         -2.8372919064       -1.0817907519       -0.0559040807
 C         -4.2353849301       -0.6045193844       -0.0492093826
 C         -4.6359218666        0.2848491765        0.8768007343
 C         -5.9888986298        0.9148146121        1.1336995724
 C         -7.0820790425        0.8822567298        0.0682180939
 C         -6.7714658682        1.6818688877       -1.1963525138
 H         -7.5821485958        1.5173650698       -1.9097469399
 H         -6.7623848258        2.7451407163       -0.9432514308
 C         -5.4419278082        1.3575523044       -1.8733983238
 H         -5.3615519000        1.9826623681       -2.7670251525
 H         -4.6166879838        1.6352595360       -1.2141076596
 C         -5.2655360254       -0.0970851731       -2.3055251410
 H         -4.3622760047       -0.1488704249       -2.9190961768
 H         -6.1097594935       -0.4005492821       -2.9275830444
 C         -5.1055199807       -1.1144659488       -1.1616540841
 H         -4.6028380965       -1.9980978934       -1.5653034522
 H         -6.0707370654       -1.4343437119       -0.7765932680
 H         -7.9729449592        1.3218938460        0.5253159290
 H         -7.3329263744       -0.1436561945       -0.1848827699
 H         -6.3758279072        0.4345525702        2.0394895461
 H         -5.7826510024        1.9558801407        1.4019925544
 O         -3.7855256994        0.7477337390        1.8404730389
 C         -2.4667466614        0.3419691476        1.9047365039
 O         -1.8179755536        0.8570154133        2.8386720607
 O         -2.4654518181       -1.8956780339       -0.9383455976
 C         -0.5327644975       -0.9579914560        1.1077042542
 C          0.3331002393       -0.0454289855        0.2783492681
 C          0.0816342557        0.1516035580       -1.0759309019
 C          0.8882928361        0.9880818326       -1.8255644085
 C          1.9645696730        1.6365608512       -1.2451319082
 C          2.2278989197        1.4409766777        0.1035921777
 C          1.4132953939        0.6050004670        0.8562392971
 H          1.6133544147        0.4705376892        1.9108122591
 N          3.3488703342        2.0699721109        0.6840011754
 S          4.8280251657        1.6645776199       -0.0003651734
 O          5.8165319943        1.9574954092        1.0121515032
 O          4.9759186818        2.3559860154       -1.2552339871
 C          4.7000714351       -0.0929138837       -0.2728114027
 C          4.8814538694       -0.9350334261        0.8065707831
 C          4.6816270325       -2.2953334372        0.6368376216
 C          4.2909765184       -2.7862038296       -0.5997660931
 C          4.1162723730       -1.9280467664       -1.6738774386
 C          4.3222387133       -0.5671517423       -1.5127947422
 H          4.2000007784        0.1313835284       -2.3238565902
 H          3.8131063345       -2.3131851343       -2.6340925341
 H          4.1179921435       -3.8429636450       -0.7251650734
 H          4.8209188971       -2.9667125073        1.4689797910
 H          5.1851842767       -0.5144233682        1.7521160371
 H          3.3923057817        1.9605572654        1.6873902834
 H          2.6090802471        2.2858483585       -1.8155553625
 H          0.6785554309        1.1358898666       -2.8741370369
 H         -0.7486487937       -0.3644079186       -1.5330903691
 H         -0.2935270453       -0.7681991558        2.1659783692
 C         -0.2622259699       -2.4331726387        0.8389076251
 C          0.5784583009       -2.9291237152       -0.2958126093
 C          1.1042902309       -2.9927955773        1.1042240089
 H          1.1851446964       -3.9535379406        1.5890815617
 H          1.8811479972       -2.2926582480        1.3738562674
 H          0.2694622622       -3.8430306715       -0.7790958113
 H          1.0125862335       -2.2056723295       -0.9676787017
 H         -1.1050262706       -3.0559241481        1.1188267073
