  62
        -98.94023993
 C         -2.4465271275       -0.9288410682       -0.0186333091
 C         -2.6442509432        0.4485314526        0.2421212634
 C         -4.0135986099        0.8348309244        0.6061355471
 C         -4.9727432354       -0.1042860274        0.6984796669
 C         -6.4076525613        0.1299736705        1.0864939339
 C         -7.3041893153        0.5785705238       -0.0756516049
 C         -7.0811724409        2.0144755483       -0.5517473743
 H         -7.9136721477        2.2660962415       -1.2117541585
 H         -7.1269427831        2.6905807749        0.3024853006
 C         -5.7657500657        2.2319327490       -1.3126320588
 H         -5.9590720577        2.8164038435       -2.2150146777
 H         -5.3675223562        1.2673875117       -1.6361134061
 C         -4.6878279857        2.9694173048       -0.5179960942
 H         -5.0221825532        3.9868095242       -0.3030457336
 H         -3.7892818557        3.0338945007       -1.1371212901
 C         -4.3032074858        2.2921230087        0.8039458002
 H         -3.3904400952        2.7623274861        1.1780425910
 H         -5.0949874508        2.4274458295        1.5403871442
 H         -8.3402374089        0.4858931434        0.2580642843
 H         -7.1616115482       -0.1091902494       -0.9123034755
 H         -6.4541078721        0.8668393316        1.8887336039
 H         -6.7857573377       -0.8219726743        1.4652300379
 O         -4.7337234100       -1.4225256793        0.4631308957
 C         -3.4763459779       -1.8634293253        0.0843795897
 O         -3.4014337945       -3.0928880514       -0.1175015202
 O         -1.7290749276        1.3102400666        0.1800179840
 C         -1.0734162300       -1.4308048985       -0.4242151157
 C         -0.0499087470       -1.0707630445        0.6255044530
 C         -0.3280355449       -1.3481499715        1.9619828396
 C          0.5884074758       -1.0494669321        2.9509451455
 C          1.8094611944       -0.4829885810        2.6288245776
 C          2.0976043904       -0.2035729144        1.2988971723
 C          1.1707248552       -0.4980454467        0.3078533786
 H          1.4235737489       -0.2711526233       -0.7140133933
 N          3.3174424872        0.3925981508        0.9404957084
 S          4.0347383255       -0.0541302054       -0.5206993810
 O          3.4503917879        0.7161905970       -1.5891562480
 O          3.9952215120       -1.4912641970       -0.6728910636
 C          5.7084928343        0.4921589832       -0.2342232467
 C          6.0065598601        1.8310078109       -0.4054746657
 C          7.2980232705        2.2668244335       -0.1555937052
 C          8.2643895171        1.3624010398        0.2595078478
 C          7.9508704709        0.0217749856        0.4252285085
 C          6.6607248406       -0.4207286460        0.1782057196
 H          6.3730613266       -1.4542800353        0.2853319460
 H          8.7051899526       -0.6791295466        0.7446298090
 H          9.2689688697        1.7043405272        0.4522493769
 H          7.5462146712        3.3077987273       -0.2861330581
 H          5.2250709792        2.4946341506       -0.7374204284
 H          3.9868659430        0.4051156181        1.6977424547
 H          2.5275655622       -0.2521285881        3.4010156420
 H          0.3546952373       -1.2670498996        3.9824613198
 H         -1.2788814092       -1.7995736064        2.2130869754
 H         -1.1466339395       -2.5283757129       -0.4613595076
 C         -0.7197078512       -0.9225929044       -1.8063790859
 C          0.2218852885       -1.6972591392       -2.6770052910
 C         -1.2386665391       -1.6493110195       -3.0089465156
 H         -1.5549565508       -1.0719181371       -3.8646777490
 H         -1.8323147786       -2.5349660514       -2.8338134927
 H          0.9155681235       -1.1501419129       -3.2984605556
 H          0.6267399849       -2.6167834619       -2.2809107904
 H         -0.6798550844        0.1602997165       -1.8540786563
