  62
        -98.94569145
 C          2.3629285309        0.8522573489        0.3052609403
 C          2.1774408301       -0.0067509812       -0.8051177395
 C          2.5351238191       -1.4163234314       -0.5887662393
 C          2.9761210890       -1.8080958115        0.6203839707
 C          3.3103992380       -3.2226631717        0.9936416309
 C          2.0855670975       -3.9515428407        1.5642739313
 C          0.8259624575       -3.8146480199        0.7080697114
 H          0.0424177071       -4.3990249792        1.1948227417
 H          0.4990977883       -2.7719707397        0.7126675713
 C          0.9914722669       -4.2847999103       -0.7435591885
 H          0.1263560264       -4.8917824797       -1.0163905582
 H          1.8726105164       -4.9219058410       -0.8274893685
 C          1.0848421376       -3.1524526806       -1.7675125687
 H          0.9788774871       -3.5860632107       -2.7651569286
 H          0.2565638481       -2.4550055299       -1.6203127187
 C          2.3919812382       -2.3510179916       -1.7567179891
 H          3.2446546077       -3.0309264322       -1.8115930791
 H          2.3987359285       -1.7171010318       -2.6480837992
 H          1.8722100580       -3.5452201803        2.5558872312
 H          2.3366559268       -5.0076757408        1.6783365314
 H          3.6812743575       -3.7466022222        0.1148952010
 H          4.0955562881       -3.2028191622        1.7514053408
 O          3.1178035898       -0.9570936114        1.6697994305
 C          2.8134149508        0.3881014788        1.5404796303
 O          2.9743741414        1.0553030989        2.5838402201
 H          0.0259161115        1.3405626209        1.5848193605
 C         -0.3463627382        1.8956723610        0.7319196405
 C          0.5664237121        2.4968348501       -0.1271648298
 C          0.0818746925        3.2113110903       -1.2136230399
 C         -1.2821463075        3.3134190912       -1.4297881997
 C         -2.1874251078        2.7212953321       -0.5690112294
 C         -1.7134195582        2.0038311120        0.5234170107
 N         -2.6100730585        1.4250361828        1.4372988909
 S         -3.9576050792        0.5702843337        0.9462442513
 O         -4.8438563086        1.4494784543        0.2265244113
 O         -4.4802774194       -0.0166265156        2.1585361415
 C         -3.3704493003       -0.7181696569       -0.1371631885
 C         -3.2044258903       -0.4570129073       -1.4825988186
 C         -2.7399747512       -1.4690840678       -2.3075522285
 C         -2.4556517321       -2.7182210479       -1.7777475583
 C         -2.6238147420       -2.9632400575       -0.4234120482
 C         -3.0796736912       -1.9534819070        0.4076950317
 H         -3.2344041311       -2.1046664967        1.4640495417
 H         -2.4008329127       -3.9350657476       -0.0138976080
 H         -2.1033896228       -3.5058413483       -2.4248288782
 H         -2.6011202013       -1.2792444581       -3.3596509185
 H         -3.4485103297        0.5205269228       -1.8636535488
 H         -2.1594310087        0.9572059426        2.2094531810
 H         -3.2510609678        2.8095362529       -0.7199478492
 H         -1.6466286872        3.8698367514       -2.2800319097
 H          0.7694511527        3.6844494496       -1.8945452901
 C          2.0347656820        2.3302425391        0.1828009600
 H          2.2195767525        2.7653170891        1.1758748099
 C          2.9541005324        2.9971619982       -0.8178712303
 C          3.2377012935        4.4645251880       -0.7122837406
 C          4.3002032128        3.4683915573       -0.3596466206
 H          5.1420591826        3.3520383665       -1.0255512907
 H          4.5472592328        3.3282745673        0.6829928894
 H          2.7659612840        5.0082380085        0.0923240794
 H          3.3538391838        5.0352598177       -1.6211583607
 H          2.8897380019        2.5561006180       -1.8054551902
 O          1.7390994602        0.3789111889       -1.9189361496
