  62
        -98.93502801
 C         -1.1796233483       -1.5728284960        0.3834044927
 C         -1.7918217759       -0.5394728174        1.1352272331
 C         -2.9444581727        0.1414126942        0.5207756491
 C         -3.3147823102       -0.1898001779       -0.7298310343
 C         -4.4633874846        0.2935486290       -1.5903063837
 C         -5.2192621411        1.5725526128       -1.2393121605
 C         -4.3962615725        2.8545507541       -1.3560930257
 H         -4.1768496542        3.0315470253       -2.4119526238
 H         -5.0096250887        3.6852117463       -1.0001056894
 C         -3.0688686417        2.8577933653       -0.6014944664
 H         -2.5988613535        3.8311717910       -0.7621350234
 H         -2.4002694946        2.1065007460       -1.0269034652
 C         -3.1718184607        2.6332126016        0.9057718950
 H         -2.1831838462        2.8182363112        1.3313032965
 H         -3.8688245716        3.3529438610        1.3391669197
 C         -3.5936682032        1.2188660461        1.3403298321
 H         -3.2558623367        1.0680608108        2.3697264195
 H         -4.6753231894        1.1046680065        1.3321685861
 H         -6.0487043012        1.6466236050       -1.9480748315
 H         -5.6587832228        1.4917914724       -0.2494599946
 H         -5.1806663592       -0.5344222142       -1.6205552692
 H         -4.0565929687        0.3840844401       -2.6024368234
 O         -2.6508930592       -1.1445137366       -1.4427744695
 C         -1.5772131912       -1.8547248806       -0.9235175402
 O         -1.0919766248       -2.6762801575       -1.7216769151
 O         -1.3985899578       -0.2022495828        2.2838180906
 C         -0.0055106236       -2.3009350911        1.0133320674
 C          1.1657407719       -2.2993022441        0.0654452950
 C          1.6261137268       -3.4367888854       -0.5841874679
 C          2.6856957567       -3.3534633226       -1.4695556261
 C          3.3194084405       -2.1470817304       -1.7045920155
 C          2.8705636976       -1.0035421963       -1.0542905734
 C          1.7951864396       -1.0860881654       -0.1852144145
 H          1.4395054040       -0.1925808611        0.3090021030
 N          3.4874446377        0.2412949959       -1.2649125023
 S          3.8343246566        1.1976907358        0.0670619745
 O          4.9433455159        2.0256635446       -0.3590305315
 O          4.0575996652        0.3963210214        1.2475134779
 C          2.4082327524        2.2399852457        0.2799858145
 C          1.7902793173        2.3094169848        1.5122834855
 C          0.7264061118        3.1811302172        1.6813178455
 C          0.3030767037        3.9652207146        0.6195552148
 C          0.9269024181        3.8755210567       -0.6157977893
 C          1.9926000167        3.0079000057       -0.7899170883
 H          2.5110937912        2.9191564339       -1.7300645614
 H          0.5885341067        4.4826631504       -1.4399724875
 H         -0.5167963436        4.6526840046        0.7572530352
 H          0.2346272538        3.2401337743        2.6394388537
 H          2.1481933511        1.6804339914        2.3122395976
 H          4.2650529477        0.2182590512       -1.9092024251
 H          4.1516402813       -2.0857234764       -2.3898521774
 H          3.0269875583       -4.2416563396       -1.9796477676
 H          1.1359628936       -4.3816844278       -0.4170239702
 H          0.2669069304       -1.6775908276        1.8815236967
 C         -0.3343991492       -3.6804998358        1.5627551256
 C         -1.6815904048       -3.9647900697        2.1552443666
 C         -1.2677409927       -4.6330162342        0.8801881545
 H         -1.0303968779       -5.6866054061        0.9100588251
 H         -1.7253647320       -4.3159817859       -0.0432901375
 H         -1.7340366540       -4.5571478888        3.0563171936
 H         -2.4226688287       -3.1803609207        2.1028372290
 H          0.5180435690       -4.1196953492        2.0729078022
