  62
        -98.94186168
 C         -1.5008301547       -1.6589857400       -0.6195823456
 C         -1.4734208146       -0.2885623437       -0.9798048470
 C         -2.7083648224        0.4636326384       -0.7095889948
 C         -3.7882228696       -0.1647028246       -0.2131766543
 C         -5.1293849733        0.4583124853        0.0654248042
 C         -5.2321798859        1.1397289163        1.4365470978
 C         -4.4570728526        2.4511206607        1.5666458848
 H         -4.7315084176        3.1159830766        0.7472174442
 H         -4.7827586444        2.9253844094        2.4945568034
 C         -2.9319876331        2.2800697128        1.6060426283
 H         -2.6877714851        1.2398462218        1.8344391268
 H         -2.5182545038        2.8881971443        2.4134485149
 C         -2.2132687967        2.6874256684        0.3198065167
 H         -1.1468380569        2.4870243144        0.4477772959
 H         -2.3391040271        3.7594872117        0.1559887955
 C         -2.6843711955        1.9447166007       -0.9373232291
 H         -3.6683172339        2.3007721947       -1.2415017366
 H         -1.9705309647        2.1453534019       -1.7395709689
 H         -4.8928408994        0.4376485507        2.2017993356
 H         -6.2893637710        1.3453954327        1.6201649509
 H         -5.8610132378       -0.3518304903        0.0283169145
 H         -5.3679311627        1.1778751543       -0.7182640759
 O         -3.7889050482       -1.4938750209        0.0762998912
 C         -2.6451186869       -2.2564847813       -0.0833074227
 O         -2.7756680082       -3.4475669312        0.2665337598
 O         -0.4914937433        0.2917730098       -1.5060812697
 C         -0.3001568074       -2.5780073260       -0.7876702191
 C          0.6505715171       -2.3977019985        0.3671963268
 C          0.8795850578       -3.4412209574        1.2574062539
 C          1.7176458298       -3.2699966446        2.3445568392
 C          2.3621281289       -2.0633789653        2.5485941042
 C          2.1419515587       -1.0142249368        1.6637736892
 C          1.2786392893       -1.1789680484        0.5910110078
 H          1.0924532985       -0.3521322332       -0.0760983595
 N          2.7853914857        0.2239172403        1.8310822884
 S          3.5836935005        0.8677542063        0.4976961537
 O          3.9722754566       -0.1766736599       -0.4209601756
 O          4.6675257945        1.6430209690        1.0690550894
 C          2.4356704760        1.9932139949       -0.2580810925
 C          1.9300476242        3.0176438308        0.5180978525
 C          1.0824315999        3.9421541240       -0.0681506477
 C          0.7603754520        3.8283570461       -1.4129177342
 C          1.2774402074        2.7948888896       -2.1759729090
 C          2.1258471078        1.8659346185       -1.5954610364
 H          2.5395987257        1.0407184726       -2.1518963915
 H          1.0179695522        2.6992256352       -3.2178531692
 H          0.0962970650        4.5476116794       -1.8663324176
 H          0.6724433525        4.7457107297        0.5226511121
 H          2.2085409907        3.0730934123        1.5576625036
 H          3.3721446948        0.2773499735        2.6519757787
 H          3.0293596753       -1.9308682827        3.3873794732
 H          1.8800708928       -4.0863037954        3.0322114504
 H          0.3799160411       -4.3863739367        1.1003380226
 H         -0.7143961412       -3.5960443180       -0.7175440924
 C          0.3459342727       -2.4541477351       -2.1619011646
 C          1.7529294870       -2.0088566640       -2.4129321578
 C          1.3860018145       -3.4505208412       -2.5839045041
 H          1.3399190214       -3.8646661445       -3.5799454678
 H          1.7359650032       -4.1445258271       -1.8338906873
 H          1.9292879034       -1.4189062038       -3.3007201162
 H          2.3847433431       -1.7313277985       -1.5833224698
 H         -0.3787702850       -2.1695078004       -2.9185658595
