  62
        -98.93425435
 C         -2.0377744571       -1.1080177060        0.0809933810
 C         -2.3525838607        0.2673403266       -0.0238634644
 C         -3.7183543218        0.6715049074        0.3807848321
 C         -4.5672065584       -0.2622726874        0.8459409706
 C         -6.0021362828       -0.0967804089        1.2708966869
 C         -6.9612137093        0.0492831793        0.0786542758
 C         -6.4785787934        0.9892410562       -1.0228336279
 H         -5.5150595755        0.6386138714       -1.3971645585
 H         -7.1903431139        0.9244776972       -1.8500836570
 C         -6.3627257546        2.4575089245       -0.6203348500
 H         -6.1017757563        3.0207344747       -1.5200867863
 H         -7.3370256936        2.8132328584       -0.2778745282
 C         -5.3225083680        2.7763360253        0.4559127012
 H         -5.1773410602        3.8607078948        0.4568001676
 H         -5.6870612052        2.5145171607        1.4455959846
 C         -3.9499324978        2.1546497487        0.2182824477
 H         -3.6143958048        2.4059751107       -0.7945937127
 H         -3.2265785494        2.6384318049        0.8862164868
 H         -7.9277636923        0.3900759492        0.4535670361
 H         -7.1012939136       -0.9394012053       -0.3653540672
 H         -6.2704571663       -0.9998594987        1.8237753088
 H         -6.0960837400        0.7458520343        1.9494561675
 O         -4.2078354215       -1.5730438566        0.9609121090
 C         -2.9555201096       -2.0253062122        0.5998482417
 O         -2.7767474603       -3.2453890234        0.7883929868
 H          1.0057739905        0.1577786780       -1.4842554514
 C          1.1848441217        0.0567826045       -0.4253542208
 C          0.4131488427       -0.8183398164        0.3221756928
 C          0.6427372959       -0.9069640281        1.6918456399
 C          1.6112621369       -0.1295542188        2.2987998075
 C          2.3701327149        0.7541378911        1.5522682872
 C          2.1472358530        0.8505635195        0.1850907916
 N          2.9102739304        1.7503709668       -0.5761677698
 S          4.5594986700        1.8102652524       -0.3214598275
 O          4.8490212647        2.5991876641        0.8502220357
 O          5.1187696277        2.2961574293       -1.5634536109
 C          5.0396438805        0.1145951438       -0.0408694926
 C          5.5615241348       -0.2646258505        1.1786488276
 C          5.8883185908       -1.5958103406        1.3832654408
 C          5.6845410067       -2.5203223498        0.3710701219
 C          5.1622746260       -2.1231254676       -0.8505980139
 C          4.8350433021       -0.7938015298       -1.0607820989
 H          4.4343095828       -0.4501526472       -2.0008380115
 H          5.0067671535       -2.8442777381       -1.6369396564
 H          5.9349772092       -3.5567909600        0.5333290901
 H          6.2965955402       -1.9073156741        2.3311794164
 H          5.7025201036        0.4860254360        1.9390877576
 H          2.6758580583        1.7658899195       -1.5570837971
 H          3.1157055943        1.3836646491        2.0103167806
 H          1.7742345604       -0.2069379395        3.3630908329
 H          0.0408824945       -1.5881589836        2.2781129950
 C         -0.6731308340       -1.6652599661       -0.2913676406
 H         -0.6378520894       -2.6565544550        0.1883305837
 C         -0.4758874354       -1.9021409968       -1.7815362839
 C         -1.6117995377       -2.3872579909       -2.6307450741
 C         -1.0574302993       -1.0109655472       -2.8358210488
 H         -0.4733900969       -0.8239280615       -3.7256796420
 H         -1.6431919781       -0.1643976143       -2.5149072320
 H         -1.4128249030       -3.1414060939       -3.3771479820
 H         -2.5786350710       -2.4851162541       -2.1583325019
 H          0.4993724595       -2.3308464353       -1.9921155337
 O         -1.5532881226        1.1427757450       -0.4456790654
