  62
        -98.94013038
 C          2.0039634302        0.7260709783        0.9041907712
 C          2.8744025504        1.1699064295       -0.1219513781
 C          4.2610549004        0.6805900894       -0.0389386784
 C          4.6201587201       -0.1409275818        0.9629026307
 C          5.9773401101       -0.7608465420        1.1231396503
 C          6.0492480602       -2.1265696412        0.4257755386
 C          5.5289239905       -2.1146090395       -1.0117110315
 H          5.6581640006       -3.1225212790       -1.4122296726
 H          4.4557659605       -1.9097822095       -1.0009538414
 C          6.2289284807       -1.1048179184       -1.9319986501
 H          7.1795424906       -0.8002782289       -1.4925396595
 H          6.4535805009       -1.5947101773       -2.8818437906
 C          5.3990891308        0.1384059320       -2.2574560688
 H          5.8916291110        0.6705513430       -3.0756814881
 H          4.4108386809       -0.1645473076       -2.6121787294
 C          5.2137966706        1.1371188506       -1.1081075376
 H          4.7784856607        2.0483767911       -1.5285549466
 H          6.1854569105        1.3870101301       -0.6774417571
 H          7.0868137602       -2.4655739712        0.4364466684
 H          5.4528092301       -2.8401277619        0.9992408877
 H          6.1699674599       -0.8966244933        2.1887766601
 H          6.7291025702       -0.0906382716        0.7108278712
 O          3.7575583499       -0.5447422630        1.9307348200
 C          2.4374581799       -0.1321167229        1.9187486703
 O          1.7521991297       -0.5821051241        2.8601248296
 O          2.5347002706        1.9313814006       -1.0625156173
 C          0.5371034902        1.1195070682        0.9789027014
 C         -0.2931798997        0.1565851292        0.1708799300
 C         -0.0419985494       -0.0497042192       -1.1824845402
 C         -0.8111790293       -0.9377939283       -1.9116860114
 C         -1.8461767194       -1.6339004190       -1.3107064424
 C         -2.1042959597       -1.4342526406        0.0381696378
 C         -1.3307503698       -0.5421327415        0.7694123090
 H         -1.5277143200       -0.4017021728        1.8238063591
 N         -3.1813746698       -2.1178525413        0.6421821567
 S         -4.6928345497       -1.7509476006        0.0087518368
 O         -5.6443533599       -2.1248892518        1.0299984862
 O         -4.8398721394       -2.3984277290       -1.2693380740
 C         -4.6462353096        0.0196703597       -0.1962879710
 C         -4.8662708598        0.8128201584        0.9125174799
 C         -4.7298502898        2.1862274585        0.7921456015
 C         -4.3628138695        2.7389717200       -0.4255023177
 C         -4.1471580393        1.9289741713       -1.5293352887
 C         -4.2889624294        0.5550481911       -1.4174339103
 H         -4.1324607892       -0.1080942279       -2.2520743711
 H         -3.8621342591        2.3624476224       -2.4743544081
 H         -4.2401714295        3.8065574201       -0.5133237864
 H         -4.8999828500        2.8198373675        1.6479377023
 H         -5.1503309000        0.3444565473        1.8415867492
 H         -3.2007269300       -2.0161464525        1.6473381768
 H         -2.4626625993       -2.3224537884       -1.8659461434
 H         -0.6041700991       -1.0901703871       -2.9601921815
 H          0.7596702907        0.4992960613       -1.6526949493
 H          0.2627546799        0.9857601770        2.0368731711
 C          0.2812556302        2.5786424986        0.6219287930
 C         -0.6000338895        3.0135749700       -0.5075815466
 C         -1.0644253698        3.1785697083        0.9056554735
 H         -1.1109383999        4.1702577278        1.3288467547
 H         -1.8383683499        2.5105633479        1.2540523025
 H         -0.2990583494        3.8886879207       -1.0626685555
 H         -1.0752246894        2.2559029607       -1.1104582676
 H          1.1433421502        3.2045915084        0.8239145540
