  62
        -98.94093256
 C         -2.5535219106       -0.2682982401        0.5423767496
 C         -2.3047975906        0.3096552397       -0.7272436805
 C         -2.1774687407        1.7745675197       -0.7528404708
 C         -2.2846676609        2.4708642999        0.3918822291
 C         -2.1684874611        3.9629895499        0.5071031188
 C         -0.7322559112        4.4045416501        0.8165947689
 C          0.3260170990        3.7875785401       -0.0984224909
 H          1.2856078289        4.2323121002        0.1764887092
 H          0.4076006391        2.7172950301        0.1064349394
 C          0.0790272391        3.9990200598       -1.5984835409
 H         -0.6094422809        4.8318696697       -1.7494982111
 H          1.0260081692        4.2702377698       -2.0696601209
 C         -0.4451628506        2.7626952496       -2.3320034408
 H         -0.3224791005        2.9241109594       -3.4065262708
 H          0.1592131294        1.8947815697       -2.0540822505
 C         -1.9195225806        2.4178100095       -2.0857225209
 H         -2.5356172407        3.3108592194       -2.2120310511
 H         -2.2208389205        1.6812725093       -2.8364101308
 H         -0.6878726313        5.4934174001        0.7437594887
 H         -0.4965649513        4.1224167903        1.8456529490
 H         -2.5056190411        4.4168455897       -0.4230839713
 H         -2.8204670712        4.2928262400        1.3184298287
 O         -2.4988274810        1.8806875401        1.5971325492
 C         -2.6012107409        0.5035426901        1.7041810494
 O         -2.7398369610        0.0916104403        2.8755928095
 O         -2.2052038904       -0.3509811905       -1.7935026604
 C         -2.6375389705       -1.7748584001        0.7240317398
 C         -1.5117192403       -2.4330596401       -0.0376938499
 C         -1.6676966701       -3.5216124803       -0.8836419097
 C         -0.5701744700       -4.0594446503       -1.5359330595
 C          0.6908914199       -3.5187913001       -1.3751599795
 C          0.8549269897       -2.4183825900       -0.5378233297
 C         -0.2360510604       -1.9109140499        0.1432861501
 H         -0.1009083106       -1.0717225898        0.8114838600
 N          2.1110248096       -1.8005988398       -0.4161902796
 S          2.3727145594       -0.5465652996        0.6650676402
 O          2.2195269493       -1.0021443793        2.0318847002
 O          1.5728905193        0.5842564603        0.2701572899
 C          4.0931846494       -0.2205959094        0.3323318003
 C          5.0603481393       -0.8062934692        1.1270782905
 C          6.3962470594       -0.5699534391        0.8430450706
 C          6.7406439694        0.2421800108       -0.2269322695
 C          5.7589421794        0.8250727005       -1.0146068797
 C          4.4215035094        0.5930160204       -0.7352700498
 H          3.6235953094        1.0304741102       -1.3128178600
 H          6.0299907894        1.4587412104       -1.8435510198
 H          7.7806843494        0.4252072308       -0.4461265494
 H          7.1611335193       -1.0184989989        1.4562253308
 H          4.7445722293       -1.4208661691        1.9547785006
 H          2.8985513697       -2.4245852397       -0.5096940094
 H          1.5399603600       -3.9270837901       -1.9007763393
 H         -0.7036733898       -4.9076245004       -2.1903332794
 H         -2.6471511601       -3.9392167504       -1.0492844098
 H         -2.4474381906       -1.9390256899        1.7992128199
 C         -4.0054812604       -2.3727931503        0.4297316498
 C         -5.2453684605       -1.5317185204        0.4783890095
 C         -4.7538177603       -2.0665171106       -0.8313495504
 H         -5.3141698601       -2.8620987808       -1.3002842203
 H         -4.2920692303       -1.3840720307       -1.5266577904
 H         -6.1368897305       -1.9604031605        0.9113062694
 H         -5.1261992106       -0.4765997504        0.6794367193
 H         -4.0997154803       -3.3811477402        0.8211851999
