  62
        -98.93101441
 C         -2.3852780699       -1.1656687097        0.2347615298
 C         -2.5047302298        0.0534855700       -0.4733926208
 C         -3.8784399598        0.5191954499       -0.7517052911
 C         -4.9285929099       -0.2007144399       -0.3172002709
 C         -6.4190259598        0.0029427401       -0.4931847811
 C         -6.9766186798        1.3533025999       -0.9363767218
 C         -6.7855301698        2.4875426803        0.0696087178
 H         -7.1384461398        3.4132306201       -0.3901782026
 H         -7.4132733299        2.2887345707        0.9418676378
 C         -5.3570964399        2.6941153805        0.5676296278
 H         -5.3650437199        3.5356660208        1.2656596675
 H         -5.0331462900        1.8154665307        1.1293471982
 C         -4.3231742398        2.9994007900       -0.5147182322
 H         -4.6549910897        3.8520296898       -1.1102775426
 H         -3.3946406798        3.2824221802       -0.0115256022
 C         -3.9929700097        1.8351222196       -1.4654737817
 H         -4.7119103596        1.7695451993       -2.2787111417
 H         -3.0120060197        2.0303885694       -1.9085278617
 H         -8.0521314998        1.2136038698       -1.0754294018
 H         -6.5681956697        1.6310741595       -1.9035167718
 H         -6.7402210698       -0.7566646402       -1.2145587508
 H         -6.8698804499       -0.2732416495        0.4651849189
 O         -4.7614820200       -1.3640004396        0.3790965496
 C         -3.5083013800       -1.8605028395        0.6864892899
 O         -3.5262757901       -2.9077563192        1.3637911204
 H          1.4132522401       -0.8761934701       -0.3811114500
 C          1.0962061501       -0.3645518697        0.5122165797
 C         -0.1139389100       -0.6682704294        1.1131044398
 C         -0.4925065001        0.0458969811        2.2478464994
 C          0.3177847399        1.0387546613        2.7617701291
 C          1.5354178499        1.3259580910        2.1697699891
 C          1.9201681500        0.6224610905        1.0355135294
 N          3.1374154201        0.9034526902        0.3947445994
 S          3.9937249501       -0.3794886401       -0.2886902400
 O          3.5221911303       -0.6037053006       -1.6319468699
 O          3.9622509300       -1.5224598597        0.5966287305
 C          5.6352937601        0.3169867399       -0.3381637801
 C          6.5257300800        0.0243748703        0.6776711501
 C          7.7886817301        0.5946764402        0.6472261600
 C          8.1366849802        1.4460317498       -0.3907178503
 C          7.2324977003        1.7298174594       -1.4036540705
 C          5.9686544203        1.1617907894       -1.3802217504
 H          5.2364686003        1.3452323191       -2.1493596906
 H          7.5076098204        2.3898956490       -2.2104888508
 H          9.1198607702        1.8889046398       -0.4120831104
 H          8.4949335900        0.3731904305        1.4310795402
 H          6.2137512600       -0.6494680894        1.4594055504
 H          3.7365728601        1.5155419204        0.9311310092
 H          2.1739981599        2.0965822112        2.5743962888
 H          0.0053997098        1.5877269717        3.6376439988
 H         -1.4406143102       -0.1856777687        2.7156757194
 C         -1.0330552900       -1.7504134996        0.6019810801
 H         -1.2378659001       -2.4357436092        1.4424894904
 C         -0.4021398399       -2.5929191001       -0.4963976095
 C         -1.2453085298       -3.3518787405       -1.4757378592
 C         -0.4313082997       -2.1818466107       -1.9363140196
 H          0.4489075803       -2.3648501310       -2.5361392495
 H         -0.9392914397       -1.2626891808       -2.1819564501
 H         -0.9306252598       -4.3446238506       -1.7603724688
 H         -2.3173378798       -3.2351064304       -1.4080647094
 H          0.5011997701       -3.0908977400       -0.1536704992
 O         -1.5233819398        0.7338852698       -0.8688117310
