  62
        -98.94106001
 C          1.9650740794        0.9009721873       -0.1565917164
 C          2.4263756374        0.1871251962        0.9785495421
 C          2.6938821372       -1.2433118323        0.7932478564
 C          2.4470901333       -1.8033069415       -0.4045512681
 C          2.7044527609       -3.2413655722       -0.7497496843
 C          4.1145211923       -3.4329000171       -1.3260049029
 C          5.2158036490       -2.7791477228       -0.4913208139
 H          6.1679111985       -3.0026132035       -0.9772490390
 H          5.0859802720       -1.6949317544       -0.5197087257
 C          5.2650208960       -3.2449228466        0.9704967652
 H          4.7168198936       -4.1812806838        1.0791951981
 H          6.3044476939       -3.4431571798        1.2399833772
 C          4.7303139364       -2.2262421073        1.9788520625
 H          5.2100675261       -1.2587364898        1.8117074553
 H          5.0089108881       -2.5614519629        2.9813698627
 C          3.2106443232       -2.0155997472        1.9746206977
 H          2.7030685383       -2.9793867539        2.0541503083
 H          2.9529405238       -1.4196968036        2.8551774684
 H          4.3082355589       -4.5034039235       -1.4145594344
 H          4.1394142396       -2.9980135946       -2.3278248362
 H          2.5779796176       -3.8497344712        0.1439432256
 H          1.9682862896       -3.5502068314       -1.4942245984
 O          1.9769690520       -1.0994837458       -1.4638497242
 C          1.7224583502        0.2638598290       -1.3748223922
 O          1.3044122945        0.7589136520       -2.4397460447
 H         -0.5651569609        0.9631934217       -0.6676822477
 C         -0.7836459870        1.8061024272       -0.0297145164
 C          0.2354702051        2.6309467391        0.4189425770
 C         -0.0940746262        3.7144568467        1.2277253589
 C         -1.4079531311        3.9568997969        1.5826347339
 C         -2.4179268533        3.1120462814        1.1584660288
 C         -2.1003136746        2.0295115975        0.3470575290
 N         -3.0971961699        1.1536228587       -0.1120307253
 S         -2.7156491872       -0.4893380618       -0.2217287792
 O         -1.9073369841       -0.8855947902        0.9103518532
 O         -2.1741054994       -0.7638879295       -1.5287602168
 C         -4.3485432511       -1.1974074291       -0.0936037465
 C         -5.1364202239       -1.2601135122       -1.2275760924
 C         -6.4203080509       -1.7715804965       -1.1239150589
 C         -6.8929333708       -2.2081198936        0.1049417398
 C         -6.0899676172       -2.1411566364        1.2336643386
 C         -4.8053730968       -1.6291686128        1.1373083482
 H         -4.1417820453       -1.5640932571        1.9847126968
 H         -6.4584287404       -2.4844959401        2.1868067158
 H         -7.8923830377       -2.6058061030        0.1827694645
 H         -7.0457756180       -1.8277474585       -2.0001255969
 H         -4.7209693486       -0.9172182571       -2.1609225868
 H         -3.9890908299        1.2988524343        0.3418664568
 H         -3.4420323221        3.2863485404        1.4511727890
 H         -1.6475912972        4.8007352491        2.2113138552
 H          0.6909863961        4.3604412465        1.5898239844
 C          1.6793144348        2.3760611420        0.0447909558
 H          2.2950422287        2.6753442755        0.9057467014
 C          2.0634649525        3.2412118196       -1.1411674503
 C          2.5516596989        4.6404383960       -0.9216756560
 C          3.5058448133        3.5759128314       -1.3707885340
 H          3.8722539912        3.5949025732       -2.3858658873
 H          4.2226527044        3.1991866346       -0.6554424936
 H          2.2593767628        5.4010285725       -1.6289416418
 H          2.6385998863        4.9928172316        0.0945548921
 H          1.4557588644        3.0496929948       -2.0165364224
 O          2.6169793950        0.7329506771        2.1005021328
