  62
        -98.94519642
 C          1.7563065895        1.3416118070       -0.2390477924
 C          2.8772499317        0.7357052124        0.3685292972
 C          3.2962187259       -0.5651907090       -0.1793786315
 C          2.6045691581       -1.0945127864       -1.2040609100
 C          2.8019498156       -2.4421484914       -1.8406040692
 C          1.8846633576       -3.4818859948       -1.1722583634
 C          2.4934729387       -4.1863975615        0.0386477540
 H          1.7101161299       -4.8103569108        0.4754982188
 H          3.2995837997       -4.8462876185       -0.2908771629
 C          3.0310687994       -3.2492341873        1.1229927429
 H          3.0733496509       -3.8083829612        2.0602011126
 H          2.3230845369       -2.4303491251        1.2701540821
 C          4.4301664999       -2.6985732780        0.8080169528
 H          5.0821216209       -2.8590782180        1.6693239518
 H          4.8583308274       -3.2705442783       -0.0152068534
 C          4.4905939038       -1.1990553536        0.4806765988
 H          4.6266171747       -0.6314674823        1.4068284228
 H          5.3736766115       -1.0053600298       -0.1377047557
 H          0.9641478043       -2.9761885881       -0.8660511524
 H          1.6150653752       -4.2419588091       -1.9088736352
 H          3.8436224168       -2.7463115748       -1.7933048726
 H          2.5101657020       -2.3401650685       -2.8878909910
 O          1.5488722922       -0.4619369514       -1.7821357261
 C          1.0775715806        0.7421879354       -1.2987476453
 O          0.0733803922        1.1816841330       -1.8933732549
 O          3.4926955032        1.2526896050        1.3426631775
 C          1.2092187246        2.6384431246        0.3279523045
 C         -0.2327974205        2.4463957455        0.7310798119
 C         -1.2167262221        3.4082342989        0.5376858913
 C         -2.5291508212        3.1543833811        0.8987781708
 C         -2.8938919008        1.9315626794        1.4319532824
 C         -1.9145287441        0.9676904234        1.6391121892
 C         -0.5955389288        1.2429036634        1.3223610315
 H          0.1507411096        0.4813901506        1.4964890317
 N         -2.2252248720       -0.3164538475        2.1389966150
 S         -2.0151858354       -1.5783521719        1.0494721379
 O         -2.4622407383       -2.7626860846        1.7520471312
 O         -0.6587587375       -1.5960169641        0.5704663617
 C         -3.1682832669       -1.1961915228       -0.2566707515
 C         -2.8172447557       -0.2852426399       -1.2324536632
 C         -3.7665292897        0.0712178019       -2.1792801823
 C         -5.0374321808       -0.4798167071       -2.1335601091
 C         -5.3723208648       -1.3947674912       -1.1462001111
 C         -4.4322452250       -1.7525363097       -0.1942510363
 H         -4.6443642986       -2.4604333539        0.5909361305
 H         -6.3602872878       -1.8250849385       -1.1134187878
 H         -5.7697499391       -0.1947724869       -2.8724285483
 H         -3.4975932618        0.7827269081       -2.9434947862
 H         -1.8209776093        0.1298068075       -1.2567484808
 H         -3.1543162035       -0.3821198030        2.5335805719
 H         -3.9227024707        1.7206176243        1.6825763119
 H         -3.2817658000        3.9115821650        0.7410517177
 H         -0.9566313339        4.3560286426        0.0952867624
 H          1.8023855764        2.8396771574        1.2328960192
 C          1.4103102322        3.7767409817       -0.6513314975
 C          1.6360087106        5.1740213811       -0.1577634551
 C          2.7677435782        4.4012570535       -0.7632776939
 H          3.1257293685        4.6855674151       -1.7413342517
 H          3.5399794038        4.0229225594       -0.1093820164
 H          1.2191681494        5.9939769589       -0.7229378363
 H          1.6473995758        5.3321903700        0.9100484682
 H          0.8454670126        3.6391160971       -1.5666306485
