  62
        -98.94109934
 C         -1.6796887949       -0.3648745800        0.9482078220
 C         -2.9068761824       -0.9932447265        0.6244454127
 C         -4.0637577532       -0.0979585654        0.4622133816
 C         -3.9063585299        1.2291269611        0.6103648936
 C         -4.9847056712        2.2522245688        0.4045658366
 C         -5.0066208927        2.7513824762       -1.0470989220
 C         -4.9950802583        1.6305711990       -2.0867162348
 H         -5.0427034039        2.1001606544       -3.0716602403
 H         -4.0413178026        1.1007429268       -2.0297796890
 C         -6.1435385626        0.6218327560       -1.9456272885
 H         -6.9399922998        1.0497301207       -1.3356598720
 H         -6.5624173104        0.4272145943       -2.9352356529
 C         -5.7308148186       -0.7310137410       -1.3628864101
 H         -6.5584642615       -1.4305639389       -1.5078826866
 H         -4.8722386676       -1.1212734549       -1.9151930472
 C         -5.3843093090       -0.7351847244        0.1312845111
 H         -6.1910714787       -0.2659312329        0.6978203177
 H         -5.3024887014       -1.7785746195        0.4493997694
 H         -4.1270857787        3.3782354883       -1.2107905374
 H         -5.8954231990        3.3695853933       -1.1859950618
 H         -5.9472032524        1.8159038403        0.6643388397
 H         -4.7883433201        3.0969432218        1.0669209491
 O         -2.7139635035        1.7984802217        0.9195445201
 C         -1.5808235225        1.0237802944        1.0897796054
 O         -0.5554004143        1.6765349475        1.3688489532
 H          1.9947867678       -0.2219782069        0.2653214614
 C          1.5339708795       -0.8915448895       -0.4446720492
 C          0.2906035580       -1.4378302931       -0.1626135583
 C         -0.3017349585       -2.2793414067       -1.0983036124
 C          0.3465896953       -2.5668195650       -2.2851842819
 C          1.5996488960       -2.0427961200       -2.5511871850
 C          2.1986500524       -1.1988062261       -1.6235008035
 N          3.4596466937       -0.6407117932       -1.8697597155
 S          4.5447696421       -0.3914513744       -0.6218507820
 O          5.8351288136       -0.3402762141       -1.2755823071
 O          4.3988780045       -1.3821147895        0.4185467009
 C          4.1483583803        1.2292807541       -0.0038741083
 C          4.1020555564        2.2766392782       -0.9022703589
 C          3.8135538996        3.5476571393       -0.4332816439
 C          3.5797635169        3.7493394169        0.9186134377
 C          3.6344117734        2.6883607970        1.8085031048
 C          3.9224699554        1.4146477588        1.3450259717
 H          3.9695908198        0.5611654769        2.0035894872
 H          3.4478816748        2.8463220815        2.8586541845
 H          3.3512154535        4.7387085580        1.2823232057
 H          3.7690026516        4.3766144772       -1.1213016966
 H          4.2925778951        2.0813617054       -1.9444511157
 H          3.9136613328       -0.9592811693       -2.7130003915
 H          2.1109265113       -2.2822669253       -3.4713482325
 H         -0.1227928500       -3.2178042212       -3.0074863895
 H         -1.2741968131       -2.6970631866       -0.8879297917
 C         -0.3776886301       -1.1220916185        1.1542929845
 H          0.2818789390       -0.4318359757        1.6978506116
 C         -0.5273039297       -2.3849983097        1.9816710797
 C          0.7065978223       -3.0157737299        2.5513930921
 C         -0.2736290479       -2.3325159570        3.4563851330
 H         -0.8854551225       -2.9401603977        4.1062429213
 H          0.0047342785       -1.3799815845        3.8837311180
 H          0.7670408100       -4.0931012038        2.5795408226
 H          1.6532280088       -2.5319023182        2.3575140067
 H         -1.3132474507       -3.0407673081        1.6321583704
 O         -3.0585131468       -2.2345902622        0.4717619069
