  62
        -98.93684203
 C         -0.7150952176       -1.7981115655       -0.2805059070
 C         -1.1595690575       -0.4999253527       -0.6305954293
 C         -2.3223906445        0.0139552923        0.1207039887
 C         -2.8212211971       -0.6956826663        1.1448417880
 C         -3.9341172165       -0.3265068277        2.0946982124
 C         -5.1890790721        0.3274814049        1.5012529566
 C         -5.5668750891       -0.1567087903        0.0938089505
 H         -4.9831013473       -1.0419736080       -0.1642365422
 H         -6.6191211856       -0.4470433245        0.0894751647
 C         -5.3697717896        0.9163614700       -0.9793028337
 H         -5.9760510275        0.6563015918       -1.8502833565
 H         -5.7417257086        1.8681784990       -0.5941795927
 C         -3.9327380336        1.0995511436       -1.4655165456
 H         -3.6251852470        0.2253974472       -2.0455665688
 H         -3.9145847822        1.9565317330       -2.1426296891
 C         -2.8812028292        1.3204021659       -0.3651114047
 H         -3.2809914912        1.9165791371        0.4518135037
 H         -2.0372883500        1.8543520622       -0.8087758541
 H         -6.0082941861        0.1186652768        2.1915669406
 H         -5.0624015383        1.4090165442        1.4840167300
 H         -4.2078621583       -1.2623168994        2.5885250678
 H         -3.5140166293        0.3300060883        2.8631542549
 O         -2.3125821776       -1.9110039874        1.4991891030
 C         -1.2735646502       -2.4902203177        0.7949096772
 O         -0.9403325896       -3.6193844043        1.2125780293
 O         -0.6291910937        0.2172394322       -1.5157379192
 C          0.4470669957       -2.5015302385       -0.9649337177
 C          1.7314114502       -2.1812577904       -0.2447854591
 C          2.6419080018       -3.1737805270        0.0970354909
 C          3.7979108946       -2.8560532083        0.7887110111
 C          4.0562646162       -1.5511659514        1.1688301040
 C          3.1497479236       -0.5525117243        0.8312933325
 C          2.0097753941       -0.8692254073        0.1099176734
 H          1.3143061663       -0.0889097494       -0.1521337608
 N          3.3697921317        0.7853716062        1.1886308360
 S          2.0671734802        1.7668683920        1.5691434522
 O          2.6403071487        2.8208922456        2.3836352682
 O          0.9931047164        1.0216243079        2.1873164310
 C          1.5372578528        2.4841867576        0.0289710304
 C          2.3338101742        2.4219549900       -1.0954292994
 C          1.8938374384        3.0324112995       -2.2589280884
 C          0.6808450264        3.7013267178       -2.2757897469
 C         -0.1027650260        3.7630534391       -1.1348674597
 C          0.3264563072        3.1460756090        0.0287759075
 H         -0.2605665487        3.1513284622        0.9342205729
 H         -1.0481746083        4.2823494159       -1.1482717432
 H          0.3397402423        4.1722134789       -3.1842493662
 H          2.4981530153        2.9790959141       -3.1502874752
 H          3.2702647971        1.8903386014       -1.0551216836
 H          4.1597286045        0.9517162895        1.7945765504
 H          4.9463076376       -1.3063316323        1.7281188600
 H          4.4976796463       -3.6350652006        1.0507314988
 H          2.4290231702       -4.2004160966       -0.1626586854
 H          0.2557249986       -3.5790068234       -0.8328259084
 C          0.5217440401       -2.2326026053       -2.4610935708
 C          1.5463738275       -1.3410241242       -3.0881769191
 C          1.6359473802       -2.8241346204       -3.2734688143
 H          1.4031864952       -3.2427270712       -4.2408669446
 H          2.4152376314       -3.3476511631       -2.7404365239
 H          1.2305978840       -0.7274340496       -3.9173632454
 H          2.2642475773       -0.8610882553       -2.4421712157
 H         -0.4630254911       -2.2270787720       -2.9168424886
