  62
        -98.93447375
 C          1.6812888492        0.1018648414        0.9294587827
 C          2.8987769275        0.7994254332        0.7457557781
 C          4.0913771555       -0.0249497727        0.4722660129
 C          3.9765757421       -1.3608176657        0.3944703055
 C          5.0549793426       -2.3890669366        0.1601853293
 C          6.1148176776       -2.0777990123       -0.9051177023
 C          5.6090634454       -1.2648390584       -2.1057352439
 H          5.9020301544       -1.7724798509       -3.0266855053
 H          4.5188118717       -1.2167398086       -2.0930742096
 C          6.1809979309        0.1541391539       -2.1497835322
 H          6.0928981702        0.5368019319       -3.1695161816
 H          7.2453363795        0.1107614453       -1.9082599599
 C          5.4994854485        1.1639680805       -1.2273703240
 H          4.4954162562        1.3855922766       -1.5990662486
 H          6.0688181832        2.0957162161       -1.2693452006
 C          5.3675662873        0.7331539457        0.2426251818
 H          6.2362863070        0.1656097674        0.5668619410
 H          5.2956236264        1.6379620924        0.8521423175
 H          6.9499583172       -1.5505211674       -0.4461715045
 H          6.5028432567       -3.0369177616       -1.2524190493
 H          5.5536480316       -2.5814049142        1.1146971355
 H          4.5201286649       -3.3021128540       -0.1121962395
 O          2.7811578458       -1.9932788730        0.5642081739
 C          1.6215207938       -1.2916449586        0.8318114619
 O          0.6111557224       -2.0107572721        0.9665684882
 H         -2.0473174530        0.1099954037        0.2354216575
 C         -1.5685163017        0.8717763136       -0.3607350153
 C         -0.3045909487        1.3228170574       -0.0100177460
 C          0.3071362150        2.2888041619       -0.8017589209
 C         -0.3398246003        2.7873954478       -1.9173561981
 C         -1.6122518707        2.3553435854       -2.2486025641
 C         -2.2329540296        1.3922935658       -1.4621859227
 N         -3.5182648096        0.9281612611       -1.7725236330
 S         -4.6037459329        0.5651948835       -0.5516366912
 O         -5.9025619277        0.6770379395       -1.1804779156
 O         -4.3888801062        1.3887656437        0.6146938291
 C         -4.2939740076       -1.1458115663       -0.1742604579
 C         -4.3166748548       -2.0577995646       -1.2106080133
 C         -4.0966461802       -3.3960170499       -0.9286396615
 C         -3.8614645229       -3.7980044220        0.3775229629
 C         -3.8466881205       -2.8709667251        1.4076363220
 C         -4.0656740672       -1.5307940179        1.1314281457
 H         -4.0572537863       -0.7766215406        1.9030971354
 H         -3.6601154047       -3.1848960988        2.4222003608
 H         -3.6867850403       -4.8397688557        0.5953852542
 H         -4.1066697346       -4.1215177183       -1.7261177083
 H         -4.5062034181       -1.7080761150       -2.2117378662
 H         -3.9638418775        1.3910838748       -2.5510590820
 H         -2.1224300485        2.7590516229       -3.1101558017
 H          0.1456956331        3.5331480816       -2.5288635791
 H          1.2913330852        2.6411586487       -0.5341756163
 C          0.3568294334        0.7813335939        1.2349268809
 H         -0.2939827887       -0.0096577428        1.6321646333
 C          0.4605300078        1.8790149662        2.2781889409
 C         -0.7981372105        2.3755100600        2.9218004483
 C          0.1785903723        1.5594878937        3.7135455456
 H          0.7631615766        2.0524838057        4.4758422976
 H         -0.0864725586        0.5407430143        3.9571758229
 H         -1.7308016002        1.9193907344        2.6219247756
 H         -0.8819871670        3.4293851266        3.1396913821
 H          1.2378087406        2.6012519850        2.0674408983
 O          3.0193483825        2.0516502825        0.8097475158
