  62
        -98.94506739
 C         -1.2727949255       -1.5084224510        0.3902121725
 C         -1.8142280516       -0.5303394585        1.2619661046
 C         -2.8539679402        0.3375112347        0.7000533711
 C         -3.2075285576        0.2013716426       -0.5903542141
 C         -4.2457433298        1.0140620581       -1.3147015727
 C         -3.7212068432        2.3604367617       -1.8327967547
 C         -3.5079532373        3.4318634050       -0.7625658585
 H         -3.3744637941        4.3813212304       -1.2850023342
 H         -4.4065201934        3.5188628178       -0.1500883512
 C         -2.2873060054        3.1943995102        0.1375802241
 H         -1.7343475052        4.1306569341        0.2513387265
 H         -1.6070524498        2.4916214220       -0.3517525010
 C         -2.6240091046        2.6951429926        1.5432755530
 H         -1.6875963734        2.5226266101        2.0797340519
 H         -3.1784141958        3.4691600734        2.0793986390
 C         -3.4415097786        1.3977578041        1.5826558766
 H         -3.4299314304        1.0188711297        2.6078951413
 H         -4.4737107531        1.5973490525        1.2951862562
 H         -4.4482031761        2.7381431144       -2.5559275664
 H         -2.7803932286        2.1896063337       -2.3627557966
 H         -4.5672333277        0.4167056214       -2.1707026165
 H         -5.1051048222        1.1813316968       -0.6642601585
 O         -2.6503336642       -0.7321637728       -1.4040990061
 C         -1.6528266212       -1.5872538330       -0.9511273868
 O         -1.2116043476       -2.3512102753       -1.8301023749
 H          0.7381918587       -0.2167062176       -0.3105984438
 C          1.3786325208       -1.0584211964       -0.5181656100
 C          1.0523637674       -2.3005138379        0.0095226559
 C          1.8648319478       -3.3823723192       -0.3033657012
 C          2.9621586491       -3.2132995659       -1.1314377622
 C          3.2781874748       -1.9744270980       -1.6577277178
 C          2.4671307041       -0.8854586226       -1.3546436933
 N          2.7258696693        0.3813942609       -1.8869675836
 S          2.0828289666        1.7740805623       -1.2455658904
 O          0.6561283894        1.8225248937       -1.4494839960
 O          2.8467259849        2.8303624544       -1.8754790837
 C          2.4714179162        1.7189496291        0.4947204118
 C          1.4617647219        1.6815291402        1.4336213032
 C          1.7927500681        1.5990852525        2.7765556684
 C          3.1251485490        1.5626480556        3.1564647931
 C          4.1306598107        1.6150902077        2.2025424990
 C          3.8036692307        1.6905598218        0.8586743534
 H          4.5580473022        1.7385046853        0.0905377876
 H          5.1659075111        1.5912911162        2.5023725964
 H          3.3790696383        1.4937005826        4.2024204357
 H          1.0036615611        1.5468695747        3.5101172258
 H          0.4333654295        1.7045003542        1.1074354778
 H          3.6077557100        0.5081812317       -2.3568718523
 H          4.1288665003       -1.8505314841       -2.3097623205
 H          3.5815586526       -4.0636944545       -1.3732016178
 H          1.6323606952       -4.3614214284        0.0818323490
 C         -0.1468861443       -2.3747466291        0.9244050848
 H          0.1370933791       -1.8824071077        1.8713321733
 C         -0.5485646352       -3.7975818714        1.2877505836
 C         -1.9869213351       -4.1907403049        1.4392006618
 C         -1.1808873103       -4.7257531679        0.2957619691
 H         -0.8963408079       -5.7677546888        0.3132748011
 H         -1.3728923956       -4.3371784860       -0.6917823265
 H         -2.7373875599       -3.4430429523        1.2253673387
 H         -2.2533079269       -4.8598310785        2.2438655190
 H          0.1391007521       -4.2463176749        1.9978326185
 O         -1.4383853005       -0.3838742072        2.4560157717
