  62
        -98.94486460
 C         -1.9309003159       -0.2135993949        0.0923186767
 C         -2.9792715800       -0.9986259588        0.6306616698
 C         -4.2741465519       -0.3248570876        0.7744557668
 C         -4.3923235014        0.9716707507        0.4347616466
 C         -5.6400509513        1.8051571799        0.5473221023
 C         -6.5952927584        1.6610593055       -0.6453977321
 C         -7.3536094395        0.3349089408       -0.7149016758
 H         -7.8428396210        0.1471957318        0.2413819984
 H         -8.1384831860        0.4541675374       -1.4644818138
 C         -6.4855743379       -0.8719994878       -1.0975112884
 H         -6.9997896447       -1.4634438624       -1.8584599152
 H         -5.5511416740       -0.5221795304       -1.5425448063
 C         -6.1595028891       -1.8123447769        0.0628665295
 H         -7.0792724069       -2.2716664601        0.4316118016
 H         -5.5126833212       -2.6086802359       -0.3139151858
 C         -5.4439631154       -1.1379787141        1.2407637328
 H         -5.0631585442       -1.9189417549        1.9033619028
 H         -6.1426771405       -0.5153383390        1.7989352350
 H         -7.3263614530        2.4699796725       -0.5767802133
 H         -6.0266782882        1.8050360750       -1.5671328723
 H         -6.1665195962        1.5557697904        1.4689685286
 H         -5.3138359468        2.8459379922        0.6032979108
 O         -3.3513231887        1.7011579321       -0.0478194158
 C         -2.1035938522        1.1269195830       -0.2520793840
 O         -1.2567030328        1.9051587233       -0.7300632790
 O         -2.8373298572       -2.2012482254        0.9784710254
 C         -0.5705486049       -0.8584675944       -0.1123543256
 C          0.4588613660       -0.1254545994        0.7099655952
 C          0.3128708748       -0.1185248461        2.0960077881
 C          1.2022083953        0.5692889901        2.8969318743
 C          2.2629070825        1.2581565820        2.3336489084
 C          2.4188339964        1.2578920687        0.9532692227
 C          1.5230005029        0.5622203313        0.1503015126
 H          1.6562910344        0.5992251873       -0.9171202271
 N          3.4719109023        1.9718381816        0.3604334717
 S          4.3822720315        1.3176478264       -0.8768501145
 O          5.5271305607        2.1949892428       -0.9827271667
 O          3.5860799446        1.1595848463       -2.0661949569
 C          4.8985151307       -0.2727065558       -0.2561023273
 C          4.1356732376       -1.3910353920       -0.5246860289
 C          4.5173060305       -2.6067930851        0.0210328081
 C          5.6470764006       -2.6831783953        0.8206040487
 C          6.4049029171       -1.5506388162        1.0780700120
 C          6.0264177167       -0.3317809795        0.5396459498
 H          6.5921195490        0.5707197439        0.7054167974
 H          7.2858733243       -1.6141535053        1.6962543112
 H          5.9395234650       -3.6317252194        1.2425977057
 H          3.9298734328       -3.4883340949       -0.1805732737
 H          3.2666793862       -1.2955502067       -1.1541126187
 H          4.0624271264        2.4634190745        1.0150518278
 H          2.9553464510        1.8042175773        2.9562148431
 H          1.0726941366        0.5695325074        3.9686617581
 H         -0.5194809450       -0.6529880141        2.5331603245
 H         -0.6718187222       -1.8765321762        0.2912599531
 C         -0.2396587496       -0.9523062388       -1.5860200825
 C          0.6849502814       -2.0236119157       -2.0788088776
 C         -0.7815059252       -2.1029581817       -2.3780420809
 H         -1.1149394012       -1.9213108723       -3.3888221884
 H         -1.3727158010       -2.8354440116       -1.8479559892
 H          1.3622782233       -1.7873467879       -2.8864168384
 H          1.0838707410       -2.7108856523       -1.3478586218
 H         -0.2082974100        0.0142838563       -2.0767228353
