  62
        -98.94340701
 C          1.5356617903        1.5486552793       -0.2124039092
 C          1.3797094001        0.1432421193       -0.3137289093
 C          2.6198119000       -0.6227359009       -0.5249996492
 C          3.7962466201        0.0231783889       -0.6021735290
 C          5.1323106800       -0.6416622613       -0.7612601088
 C          5.7690173498       -0.9411192515        0.6031575713
 C          4.8278759895       -1.6403632515        1.5843082811
 H          5.3939180893       -1.8266699316        2.4997087511
 H          4.0134440196       -0.9599421113        1.8437025610
 C          4.2392604393       -2.9610450713        1.0686798109
 H          4.8346471994       -3.3292349213        0.2323376209
 H          4.3036264391       -3.7060503114        1.8645786808
 C          2.7699070894       -2.8809289610        0.6496382506
 H          2.1838358894       -2.4243584510        1.4510860606
 H          2.4011716493       -3.9007842810        0.5135063605
 C          2.4867019997       -2.1143626209       -0.6481132893
 H          3.1253992198       -2.4943337309       -1.4479768493
 H          1.4424159498       -2.2959857407       -0.9177849895
 H          6.6549793697       -1.5583008417        0.4427290813
 H          6.0898135098        0.0028377684        1.0501672114
 H          5.0086343299       -1.5634390112       -1.3263282089
 H          5.7876541202        0.0302065986       -1.3182329887
 O          3.9073928703        1.3721116589       -0.4881408088
 C          2.7896702104        2.1616285990       -0.2708410189
 O          3.0403553806        3.3771295690       -0.1432542788
 O          0.2777863000       -0.4544712305       -0.2338170395
 C          0.3450579604        2.4627703794        0.0244669707
 C         -0.5600429998        1.8548777595        1.0663576205
 C         -0.0891843001        1.7316282193        2.3710117206
 C         -0.8689728103        1.1492472094        3.3512136704
 C         -2.1315382803        0.6705498296        3.0488158502
 C         -2.6112300801        0.7922629398        1.7501153202
 C         -1.8315729399        1.3911580697        0.7707877303
 H         -2.2235946997        1.4649405099       -0.2289716297
 N         -3.8921143302        0.3293013000        1.4218689599
 S         -4.2613647000       -0.2463124598       -0.0984089102
 O         -4.3458314297        0.8458958703       -1.0367344101
 O         -5.4912630902       -0.9858500196        0.1051035496
 C         -2.9785981001       -1.3865568000       -0.5808189401
 C         -2.6093672304       -2.3835735901        0.2983225499
 C         -1.6657715205       -3.3134284402       -0.1028265800
 C         -1.1154162803       -3.2357628602       -1.3720268100
 C         -1.4943126400       -2.2266272701       -2.2414732099
 C         -2.4345621899       -1.2914481199       -1.8433573600
 H         -2.7507021597       -0.4860783198       -2.4870358900
 H         -1.0549864299       -2.1588477901       -3.2245719299
 H         -0.3831124504       -3.9645218703       -1.6845043099
 H         -1.3579038208       -4.0930313803        0.5757000799
 H         -3.0577624506       -2.4256317001        1.2778937898
 H         -4.3634696303       -0.1899791900        2.1470141898
 H         -2.7401755805        0.2062598996        3.8098206001
 H         -0.4890511205        1.0583468592        4.3578317805
 H          0.9049213600        2.0906429591        2.6027381108
 H          0.7713289105        3.3901137393        0.4419386409
 C         -0.3945434293        2.8564853497       -1.2452600093
 C          0.3372544609        3.0405883596       -2.5400678992
 C         -0.6175219793        1.8983730898       -2.3747331595
 H         -1.5644400392        1.9395888600       -2.8941620896
 H         -0.2181751395        0.9017701997       -2.2713544795
 H          0.0529689111        3.8644680697       -3.1773414792
 H          1.3961562809        2.8265238895       -2.5497738991
 H         -1.1966394892        3.5606951098       -1.0432414994
