  62
        -98.94120757
 C         -1.5142912996       -1.5787193517       -0.2178406635
 C         -2.6829643833       -1.2624054494        0.5171215508
 C         -3.5076688696       -0.1444915776        0.0212856455
 C         -3.1107832141        0.5077748709       -1.0868441622
 C         -3.7617774119        1.6971334809       -1.7398941456
 C         -3.4870426664        3.0163613567       -0.9932986173
 C         -3.4887582413        2.9121861105        0.5305720290
 H         -2.7903080498        2.1322257689        0.8401423113
 H         -3.1176953350        3.8595167767        0.9305414776
 C         -4.8553990936        2.6524971201        1.1605004152
 H         -4.7151631624        2.6067166001        2.2434801415
 H         -5.5125482278        3.4988906226        0.9465142195
 C         -5.5647636219        1.3747096307        0.7134863009
 H         -6.4424509769        1.2482474279        1.3544968816
 H         -5.9370458914        1.4776069750       -0.3021734772
 C         -4.7414911959        0.0974557090        0.8559302163
 H         -4.4165758561       -0.0019135474        1.8976044637
 H         -5.4006983857       -0.7607153909        0.6748476061
 H         -2.5029879404        3.3781525889       -1.2998543784
 H         -4.2268817078        3.7531752796       -1.3098084654
 H         -3.3449449693        1.7733479427       -2.7466483425
 H         -4.8287840537        1.5188340169       -1.8398262976
 O         -1.9777039220        0.1694564286       -1.7631568138
 C         -1.1529599872       -0.8659696750       -1.3599228780
 O         -0.1628087995       -1.0369662109       -2.0971997528
 O         -3.0266819618       -1.8867856543        1.5560998669
 C         -0.6208199606       -2.6902687306        0.3104167627
 C          0.6262317776       -2.0330877567        0.8466081819
 C          0.6330458456       -1.5248744477        2.1427418747
 C          1.7215675552       -0.8184866956        2.6201437527
 C          2.8154082374       -0.5798053986        1.8060820863
 C          2.8101700772       -1.0720810483        0.5079630966
 C          1.7350683928       -1.8163321533        0.0431461153
 H          1.7438752792       -2.1824853126       -0.9709359894
 N          3.8862161694       -0.7710725131       -0.3489078424
 S          4.3285606263        0.8443158169       -0.4123336831
 O          4.8217876836        1.0603662192       -1.7549211197
 O          5.2713734629        1.1185140068        0.6451245664
 C          2.8349927445        1.7837281003       -0.1290818223
 C          1.7307991250        1.5416685083       -0.9217069096
 C          0.5712537736        2.2639176073       -0.6910774825
 C          0.5328565997        3.2122006111        0.3187591606
 C          1.6525535108        3.4488589574        1.1010044284
 C          2.8143142923        2.7279072348        0.8779174998
 H          3.7047173667        2.8731063210        1.4679215115
 H          1.6212183160        4.1878715645        1.8852977651
 H         -0.3759377515        3.7657582152        0.4963357669
 H         -0.2974061146        2.0648238907       -1.2988264522
 H          1.7616925843        0.7912591950       -1.6961802786
 H          3.7614948850       -1.1367595974       -1.2824428573
 H          3.6651497323       -0.0123297675        2.1500344442
 H          1.7147583700       -0.4373151273        3.6297787319
 H         -0.2365720054       -1.6765568555        2.7663918689
 H         -1.1693606297       -3.1308380318        1.1530566278
 C         -0.3577388686       -3.7689211643       -0.7182691940
 C          0.2317790950       -5.0730153285       -0.2733940221
 C         -1.1995984098       -5.0081777348       -0.7116683299
 H         -1.4706970160       -5.4510499185       -1.6583984813
 H         -1.9691287849       -5.0865124455        0.0422178394
 H          0.9458710285       -5.5637265196       -0.9169709172
 H          0.4347369281       -5.1930383983        0.7800427733
 H         -0.0609082303       -3.3835394435       -1.6857596311
