  62
        -98.94608687
 C          0.9781417789        1.6427145614        0.6219602750
 C          1.7532970758        1.5437318108       -0.5583017687
 C          2.8758100069        0.5960865837       -0.5078764819
 C          3.0870004104       -0.1185299110        0.6123785237
 C          4.1960272929       -1.1134946743        0.7953755079
 C          3.7623543464       -2.5312681224        0.4006754292
 C          3.0537739615       -2.6075068259       -0.9511076916
 H          2.8134160989       -3.6563150744       -1.1344006589
 H          2.1058062919       -2.0677404269       -0.8888633512
 C          3.8749675566       -2.0627646396       -2.1281048312
 H          3.7877431632       -2.7569587511       -2.9663985139
 H          4.9298257975       -2.0164979965       -1.8546331557
 C          3.4257501834       -0.6925981317       -2.6387014031
 H          3.9170503485       -0.5097708220       -3.5981816147
 H          2.3478571974       -0.7026812432       -2.8199935332
 C          3.7490770136        0.4975836081       -1.7267919378
 H          4.8042063238        0.4712343771       -1.4464251085
 H          3.5682862776        1.4129916154       -2.2978547016
 H          3.0810471498       -2.9058476829        1.1658144346
 H          4.6471855776       -3.1701695178        0.3869814640
 H          5.0496275764       -0.8030355120        0.1955348783
 H          4.4860229062       -1.1111276842        1.8475951228
 O          2.2889882276       -0.0319762197        1.7081179262
 C          1.2179476074        0.8462477683        1.7407609584
 O          0.5665587481        0.8244838674        2.8057068771
 H         -1.2887587621        0.2602508004        0.3080889373
 C         -1.6821582032        0.9809320934       -0.3936438520
 C         -1.2067187170        2.2863682234       -0.3611322747
 C         -1.7180264908        3.2033746460       -1.2692630225
 C         -2.6759604361        2.8134425049       -2.1894655367
 C         -3.1633979158        1.5200424762       -2.2019900141
 C         -2.6653233154        0.5960341250       -1.2892410160
 N         -3.1396029328       -0.7239170007       -1.2660362708
 S         -3.3750384415       -1.5115123860        0.1946137718
 O         -4.4355728995       -2.4590215564       -0.0791913769
 O         -3.6176955032       -0.5782437809        1.2683214677
 C         -1.8727865048       -2.4265297953        0.4657227498
 C         -1.6025661105       -3.4766478351       -0.3908137383
 C         -0.4690556880       -4.2425445927       -0.1776538244
 C          0.3727223597       -3.9480115055        0.8845185630
 C          0.0940443186       -2.8852946983        1.7293637352
 C         -1.0414568992       -2.1170961541        1.5228772723
 H         -1.2818136845       -1.2861525390        2.1695756377
 H          0.7499109533       -2.6384499820        2.5499440684
 H          1.2484354970       -4.5536437967        1.0572774479
 H         -0.2460356228       -5.0677532314       -0.8343880796
 H         -2.2921742019       -3.6821692548       -1.1924929555
 H         -3.8897684780       -0.9150597335       -1.9143301828
 H         -3.9222506866        1.2232315376       -2.9100188270
 H         -3.0584080920        3.5320370779       -2.8985305064
 H         -1.3636796295        4.2207948254       -1.2627796805
 C         -0.1746377521        2.6280982447        0.6861462461
 H         -0.6448735206        2.4846273343        1.6708524758
 C          0.3427356220        4.0484417379        0.5958916466
 C         -0.4290748170        5.1714297028        1.2186667273
 C          0.8559779598        4.7114645177        1.8372126884
 H          1.7240993831        5.3488188018        1.7610497211
 H          0.8090781800        4.1462682411        2.7570762823
 H         -1.3510340034        4.9243348132        1.7234573598
 H         -0.4420357561        6.1287560924        0.7198569756
 H          0.8736562608        4.2411981663       -0.3290212648
 O          1.5316279680        2.2213368918       -1.5953633016
