  62
        -98.94486715
 C         -1.9040703193       -0.1148104102        0.0577578204
 C         -2.8978029491       -0.9936607591        0.5514011726
 C         -4.2200717692       -0.4003507188        0.7769586913
 C         -4.4122306594        0.9101005706        0.5396242481
 C         -5.6976146695        1.6656385810        0.7425845464
 C         -6.6764337596        1.5586072580       -0.4348742632
 C         -7.3664548194        0.2023401275       -0.5869286699
 H         -7.8185034693       -0.0825228202        0.3636271008
 H         -8.1770119995        0.3347911557       -1.3063337601
 C         -6.4479656293       -0.9241399835       -1.0808898073
 H         -5.5450474094       -0.4924572145       -1.5190771284
 H         -6.9512332993       -1.4833486655       -1.8728887459
 C         -6.0425785691       -1.9299147109       -0.0033815449
 H         -6.9265559490       -2.4659807402        0.3490012165
 H         -5.3637903890       -2.6586591319       -0.4535919132
 C         -5.3341179890       -1.3066957179        1.2063872636
 H         -6.0500776891       -0.7652022265        1.8241148923
 H         -4.8966988989       -2.1128358564        1.8003902355
 H         -7.4465991596        2.3194371182       -0.2881717050
 H         -6.1418318097        1.8010325458       -1.3563097639
 H         -5.4239264096        2.7154290613        0.8682449039
 H         -6.1854658793        1.3219979431        1.6551490273
 O         -3.4223323595        1.7278393697        0.0914731861
 C         -2.1524509695        1.2368974892       -0.1796485029
 O         -1.3547756796        2.0905403182       -0.6115548550
 O         -2.6869005290       -2.2112361085        0.7979611955
 C         -0.5187094993       -0.6656995207       -0.2294778484
 C          0.5125160407        0.0874060114        0.5724142297
 C          0.3340156808        0.1975658747        1.9501239094
 C          1.2328503408        0.9011679667        2.7261847277
 C          2.3399662007        1.4987073454        2.1481702761
 C          2.5336658006        1.3873495421        0.7777350764
 C          1.6263226006        0.6790978201       -0.0006986118
 H          1.7968484505        0.6255328376       -1.0623634817
 N          3.6440055504        1.9900773908        0.1631460448
 S          4.5572334405        1.1216892582       -0.9353123332
 O          5.8063469003        1.8456777082       -1.0220824950
 O          3.8348241004        0.9495090752       -2.1689751627
 C          4.8163156007       -0.4511985398       -0.1363237994
 C          5.7652198608       -0.5249263673        0.8650496107
 C          5.9286292010       -1.7189875156        1.5476301536
 C          5.1375043412       -2.8113983665        1.2250137263
 C          4.1908104011       -2.7213139090        0.2166134962
 C          4.0252764408       -1.5302965307       -0.4729055867
 H          3.3026657008       -1.4222110827       -1.2646054169
 H          3.5779583511       -3.5724770097       -0.0341736317
 H          5.2604725613       -3.7395713652        1.7604633585
 H          6.6675613011       -1.7943265436        2.3290065037
 H          6.3663946407        0.3440858233        1.0782191185
 H          4.2401404404        2.5031145724        0.7961529335
 H          3.0402860607        2.0567912670        2.7508658047
 H          1.0741997509        0.9849020492        3.7907306475
 H         -0.5319851591       -0.2676292344        2.4010320206
 H         -0.5418498691       -1.7061563399        0.1276203341
 C         -0.2547442294       -0.6693775343       -1.7200236784
 C          0.6368054807       -1.7092472556       -2.3273125960
 C         -0.8426794293       -1.7618067864       -2.5603216957
 H         -1.2237950594       -1.5109899088       -3.5389376263
 H         -1.4126658292       -2.5257639052       -2.0518252938
 H          1.2804988006       -1.4218473075       -3.1458613067
 H          1.0617518509       -2.4477947840       -1.6642472542
 H         -0.2401866296        0.3281542247       -2.1458845308
