  62
        -98.94390197
 C         -1.7728221689       -0.4900232415       -0.4020398058
 C         -3.0152852435       -1.0611018231       -0.7662308625
 C         -4.1385201127       -0.7914638911        0.1410836343
 C         -3.9269777197       -0.0569930559        1.2487292513
 C         -4.9896619787        0.3336239913        2.2337509407
 C         -5.6188226030        1.6847585957        1.8661815537
 C         -6.0491518433        1.7878866273        0.4029387663
 H         -6.5063293068        2.7703814912        0.2669402841
 H         -5.1616667554        1.7554729792       -0.2331283616
 C         -7.0338495435        0.6996597373       -0.0471505746
 H         -7.4981289845        0.2361968032        0.8241618352
 H         -7.8313761858        1.1674839127       -0.6283000009
 C         -6.4180364505       -0.3868961336       -0.9307274564
 H         -7.2319765333       -0.9721405000       -1.3669778600
 H         -5.8715955596        0.0778551637       -1.7553463535
 C         -5.4771460721       -1.3696892041       -0.2222547261
 H         -5.2708009849       -2.1904173881       -0.9157343874
 H         -5.9722714942       -1.7824809034        0.6592252691
 H         -6.4816287203        1.8510933614        2.5137808447
 H         -4.8882451083        2.4722686657        2.0647232891
 H         -4.5309930438        0.4129712359        3.2209155859
 H         -5.7547256398       -0.4399204335        2.2615016273
 O         -2.7151297618        0.4580768017        1.5763331664
 C         -1.6101519381        0.2679285784        0.7581163794
 O         -0.5686776815        0.8091193303        1.1697933372
 O         -3.1750731599       -1.7663612265       -1.7995193217
 C         -0.5777330588       -0.7055195455       -1.3095049966
 C          0.5657711953       -1.3736940023       -0.5856449895
 C          0.3163059880       -2.2955890682        0.4264158260
 C          1.3542713209       -2.8982966388        1.1122190424
 C          2.6697339662       -2.6098643950        0.7933581599
 C          2.9311053636       -1.7158260708       -0.2339558039
 C          1.8866964154       -1.1049021986       -0.9167360345
 H          2.1116506700       -0.4065688478       -1.7084835768
 N          4.2774051869       -1.4223949142       -0.5555847101
 S          5.0661204469       -0.4090189122        0.5240868544
 O          6.4124484012       -0.2621636462        0.0196504784
 O          4.9307061925       -0.9529846607        1.8498637829
 C          4.1937929597        1.1393792788        0.3765375612
 C          4.7279085709        2.1394509098       -0.4131058218
 C          3.9982921143        3.3007588369       -0.6074121196
 C          2.7438284509        3.4328582756       -0.0296104319
 C          2.2195311740        2.4186512218        0.7568424669
 C          2.9515880974        1.2603368138        0.9662405696
 H          2.5599240547        0.4602187261        1.5731741783
 H          1.2348288851        2.4939042440        1.1905732555
 H          2.1684744574        4.3307959149       -0.1935843147
 H          4.4030026478        4.0943227697       -1.2150334948
 H          5.7020845398        1.9896536292       -0.8502006628
 H          4.3896698987       -1.0481613348       -1.4884971725
 H          3.4918633599       -3.0509136377        1.3325130989
 H          1.1369876002       -3.5990709522        1.9043878624
 H         -0.7084047371       -2.5277517518        0.6826615880
 H         -0.9307065854       -1.3900057179       -2.0963098450
 C         -0.1723278717        0.6080535576       -1.9511894455
 C          0.3417358076        0.6489820668       -3.3587715925
 C         -1.0268620310        1.1720440683       -3.0450399734
 H         -1.1943521823        2.2381082842       -3.0731004193
 H         -1.8809575456        0.5876452288       -3.3555080049
 H          1.1157528093        1.3608932179       -3.6042745886
 H          0.4116082469       -0.2849928344       -3.8961778278
 H          0.2474005504        1.3047092931       -1.2337919713
