  62
        -98.94255856
 C          1.2289584853        1.6111691147        0.1998047435
 C          1.5959743841        0.6096408808        1.1273744471
 C          2.8580259984       -0.1058361546        0.8730178173
 C          3.5905943606        0.2188998811       -0.2088771645
 C          4.9334621633       -0.2835216826       -0.6987276353
 C          5.5898729622       -1.5000979338       -0.0535129711
 C          4.8934593457       -2.8297204899       -0.3518109988
 H          5.1086892398       -3.1049987742       -1.3873906662
 H          5.3230179055       -3.5995939899        0.2924472971
 C          3.3752291037       -2.8349075174       -0.1893495796
 H          3.0004416970       -3.8088556459       -0.5165051885
 H          2.9266171112       -2.0911392307       -0.8514115617
 C          2.8588299275       -2.6021465141        1.2281207192
 H          1.7704237195       -2.7126783518        1.1919709518
 H          3.2547112668       -3.3699881253        1.8967152256
 C          3.1756994039       -1.2225761409        1.8251474460
 H          2.5304979416       -1.0766550529        2.6968050677
 H          4.2059304640       -1.1709355151        2.1680758965
 H          6.6033872233       -1.5617719653       -0.4588532009
 H          5.6895418847       -1.3451525710        1.0168921405
 H          5.6151753026        0.5691666087       -0.6056173665
 H          4.8151108522       -0.4654062859       -1.7718031033
 O          3.1898439811        1.1890121998       -1.0832994738
 C          1.9929192409        1.8709416508       -0.9353074601
 O          1.7402063672        2.6665984543       -1.8599427812
 O          0.8955139599        0.3244726058        2.1370986218
 C         -0.0903047567        2.3358980597        0.3899765860
 C         -1.0811867484        1.8854813746       -0.6568290348
 C         -1.9432413261        2.7435393151       -1.3275395431
 C         -2.8449411245        2.2440395067       -2.2522029202
 C         -2.9314007976        0.8867127208       -2.5041930576
 C         -2.0772806745        0.0193031695       -1.8324775654
 C         -1.1571176264        0.5265735436       -0.9305773625
 H         -0.4793151764       -0.1549994263       -0.4411353655
 N         -2.1298063514       -1.3680013280       -2.0356563743
 S         -1.8934376196       -2.3848184202       -0.7247704949
 O         -0.4932968063       -2.4717243539       -0.3988260121
 O         -2.5225544273       -3.6267009416       -1.1250017648
 C         -2.8282031566       -1.6403722509        0.6004329527
 C         -4.2055439432       -1.6822899261        0.4910834625
 C         -4.9784102285       -1.0754661956        1.4662698345
 C         -4.3631188823       -0.4337610931        2.5308871219
 C         -2.9814818509       -0.4063545141        2.6295607181
 C         -2.2008895678       -1.0141963166        1.6574976853
 H         -1.1234812509       -0.9934636710        1.7173412050
 H         -2.4947572133        0.0894840150        3.4544631598
 H         -4.9624343382        0.0450259059        3.2891805578
 H         -6.0536503693       -1.1012549027        1.3932730440
 H         -4.6449782074       -2.2023153457       -0.3446646053
 H         -2.8848588909       -1.6847720589       -2.6257815092
 H         -3.6435761298        0.5005961339       -3.2170838067
 H         -3.5003269514        2.9225671817       -2.7766607698
 H         -1.9041187133        3.8026783679       -1.1333029996
 H         -0.4692800117        1.9920317628        1.3650319819
 C          0.1023199019        3.8355797070        0.4465439198
 C         -0.8339679910        4.6832911464        1.2536301326
 C          0.5683742143        4.4553995965        1.7290340803
 H          1.2723978173        5.2723849281        1.6799680005
 H          0.7243948811        3.7965597797        2.5708981207
 H         -1.0935160722        5.6626891028        0.8811234737
 H         -1.6332387037        4.1835037161        1.7795520882
 H          0.4985912826        4.2413460067       -0.4769207069
