  62
        -98.94083392
 C         -1.7213718856       -0.1355993551       -0.6332445674
 C         -2.9063445898        0.2800065870       -1.2938059206
 C         -4.1733953953       -0.1670517023       -0.7008749222
 C         -4.1446293365       -0.9751317822        0.3739362498
 C         -5.3558306156       -1.4543669599        1.1192040586
 C         -5.7183721165       -0.4941805180        2.2610179641
 C         -5.7775868412        0.9740559334        1.8389378100
 H         -6.0701709208        1.5530584274        2.7175748129
 H         -4.7749151214        1.3043596391        1.5575289989
 C         -6.7498230017        1.2651647203        0.6870653798
 H         -7.4556102684        0.4405180727        0.5815208164
 H         -7.3284799342        2.1574964073        0.9348542232
 C         -6.0762551178        1.5307791203       -0.6606009382
 H         -6.8290836577        1.9333904515       -1.3433759738
 H         -5.3036420457        2.2944148435       -0.5394658554
 C         -5.4457092950        0.3100923563       -1.3426390907
 H         -6.1766648717       -0.4990301651       -1.3978676420
 H         -5.1758051247        0.6008590870       -2.3620937966
 H         -4.9674689325       -0.5939183495        3.0485031226
 H         -6.6834458147       -0.7956300491        2.6723519318
 H         -6.1907386011       -1.5442687709        0.4269057186
 H         -5.1352318383       -2.4373583173        1.5387716933
 O         -2.9906360497       -1.4152855913        0.9350126270
 C         -1.7493979452       -1.0060507196        0.4575423543
 O         -0.7891645126       -1.4948865345        1.0808268962
 H          1.9685810203       -0.0083727140        0.1703653817
 C          1.7676962156       -0.7886396718       -0.5430615267
 C          0.5971339631       -0.7692435368       -1.2845055439
 C          0.3359337515       -1.8272941562       -2.1511962150
 C          1.2175895174       -2.8849076241       -2.2576398311
 C          2.3871420008       -2.9000501470       -1.5185930096
 C          2.6620610230       -1.8444632234       -0.6564925869
 N          3.8676194973       -1.8145197725        0.0473060017
 S          4.2503238145       -0.7375529354        1.2515599244
 O          5.5782401558       -1.1452446165        1.6622772596
 O          3.2632640441       -0.6839819609        2.3035978637
 C          4.3441898259        0.8344914776        0.4181042439
 C          3.8649077818        1.9588060485        1.0602506810
 C          3.9396973901        3.1845979273        0.4181116873
 C          4.4943377057        3.2648603590       -0.8498445427
 C          4.9795449190        2.1281476959       -1.4782843764
 C          4.9075611961        0.8998216452       -0.8406836022
 H          5.2720960292       -0.0021521678       -1.3029105659
 H          5.4105615422        2.1949203484       -2.4642245721
 H          4.5471439957        4.2188590895       -1.3503064369
 H          3.5631616490        4.0691644545        0.9068544238
 H          3.4332577419        1.8463428653        2.0426470405
 H          4.4209496595       -2.6559967373        0.0486879158
 H          3.0785088284       -3.7245538750       -1.6011619746
 H          0.9958267970       -3.7055664672       -2.9233501204
 H         -0.5787098704       -1.8159207658       -2.7284796441
 C         -0.3998342490        0.3569198063       -1.1951561166
 H         -0.6433043496        0.6737685791       -2.2234037583
 C          0.1519892778        1.5839533982       -0.4837899930
 C         -0.7671135895        2.6053737881        0.1140055537
 C          0.0785516365        1.7467589780        1.0034392637
 H          0.9170153339        2.1999780571        1.5112444795
 H         -0.3937503243        0.9601066337        1.5718098221
 H         -0.5117771846        3.6489923263        0.0109435052
 H         -1.8285465270        2.4089673917        0.0724908362
 H          1.0450957245        1.9664382814       -0.9695628558
 O         -2.9028748616        0.9913845208       -2.3333503694
