  62
        -98.93907665
 C          2.0185606737        0.9003734446        0.0543169722
 C          2.2781032447       -0.1027730667        1.0126997805
 C          2.3495343193       -1.4920546872        0.5235350153
 C          2.1478838780       -1.7258498020       -0.7867473470
 C          2.2053964627       -3.0455582830       -1.5086956644
 C          3.6460760850       -3.5370954071       -1.7352599599
 C          4.5904638140       -3.3409869914       -0.5515034482
 H          5.5998736369       -3.5935356116       -0.8864551858
 H          4.5963720383       -2.2864211393       -0.2697219035
 C          4.2804579136       -4.1927189047        0.6769245711
 H          4.3496115921       -5.2487286236        0.4062852864
 H          5.0549035461       -3.9875357751        1.4201971913
 C          2.9183081497       -3.9524109483        1.3291892950
 H          2.9212917631       -4.4709512162        2.2926124352
 H          2.1206945294       -4.3985051210        0.7411633735
 C          2.5977290174       -2.4907418382        1.6285333282
 H          3.4019487124       -2.0651761299        2.2398079445
 H          1.7016098030       -2.4539579761        2.2616818241
 H          4.0584020653       -2.9835036140       -2.5820560265
 H          3.6119376482       -4.5934820449       -2.0061271663
 H          1.6173136720       -3.7835411326       -0.9705922174
 H          1.7305323162       -2.8905324947       -2.4800558221
 O          1.9023873619       -0.7244893295       -1.6788470625
 C          1.8005699416        0.5961303566       -1.2887189953
 O          1.5371175060        1.3910779338       -2.2124118623
 O          2.4497614709        0.1484276349        2.2386652036
 C          1.8609305545        2.3393227298        0.5100185423
 C          0.4615838145        2.8074370199        0.1916106425
 C          0.1711688013        4.0493306139       -0.3577087656
 C         -1.1355419866        4.3892317936       -0.6643612926
 C         -2.1713128281        3.5005318010       -0.4450268186
 C         -1.8926692144        2.2627491414        0.1249208276
 C         -0.5891880729        1.9384268387        0.4578549814
 H         -0.3858555363        0.9730440821        0.8997755916
 N         -2.9186090717        1.3364060910        0.3859066908
 S         -2.5554071119       -0.3071433949        0.2356770500
 O         -1.9549763752       -0.7629169174        1.4656525044
 O         -1.8084756044       -0.5551330526       -0.9769197426
 C         -4.2031092652       -0.9768476863        0.0987693070
 C         -4.9555313645       -1.1222425963        1.2492318551
 C         -6.2492969198       -1.6080187433        1.1464038850
 C         -6.7666605803       -1.9377840359       -0.0977146053
 C         -5.9991383012       -1.7883416626       -1.2429499025
 C         -4.7046809241       -1.3014104911       -1.1473017516
 H         -4.0672342871       -1.1741764495       -2.0078207641
 H         -6.4021902019       -2.0483064035       -2.2084388684
 H         -7.7735557631       -2.3162902089       -0.1752056508
 H         -6.8478894642       -1.7279207561        2.0348565131
 H         -4.5061883634       -0.8612094138        2.1931139205
 H         -3.7812647146        1.5666516316       -0.0891043713
 H         -3.1853059154        3.7578270398       -0.7107690124
 H         -1.3471709617        5.3543997607       -1.0990156026
 H          0.9688646021        4.7451461481       -0.5600296299
 H          1.9779792219        2.3158127318        1.6043631729
 C          2.9439708454        3.2166069432       -0.0813115705
 C          3.4250727443        4.4282906129        0.6582961200
 C          4.3011500239        3.2174332691        0.5538951599
 H          5.1695045930        3.2590755441       -0.0861969045
 H          4.4350754610        2.6030469945        1.4323841110
 H          3.6964882444        5.3048719680        0.0897155429
 H          2.9711522121        4.6426927972        1.6139503680
 H          2.8969683611        3.2576450840       -1.1638090474
