  62
        -98.94128043
 C         -2.6969546888       -0.2633574305       -0.2406320177
 C         -2.2602421906       -1.0392872343        0.8621751108
 C         -1.7437066404       -2.3806676078        0.5360821134
 C         -1.7030611519       -2.7888782909       -0.7435444658
 C         -1.1894860553       -4.1209143988       -1.2088733752
 C          0.3011404578       -4.0665664628       -1.5663329927
 C          1.1783030712       -3.4234745555       -0.4915045015
 H          2.2138745124       -3.5005075903       -0.8323113435
 H          0.9474644283       -2.3572616633       -0.4279408343
 C          1.0530351217       -4.0558838515        0.9011671986
 H          2.0541628538       -4.1632172595        1.3242312155
 H          0.6247410817       -5.0562046901        0.8179424820
 C          0.2371439417       -3.2335692752        1.9009987005
 H          0.5881460428       -2.1978679686        1.8941747448
 H          0.4215630043       -3.6350036151        2.9016747522
 C         -1.2816478758       -3.2341617749        1.6834137026
 H         -1.6375125003       -4.2608561815        1.5679113818
 H         -1.7448018229       -2.8068727845        2.5779244834
 H          0.4160486116       -3.4878556351       -2.4857323468
 H          0.6446461020       -5.0855523617       -1.7571157198
 H         -1.7547676203       -4.4106611723       -2.0968260105
 H         -1.3583568820       -4.8585160739       -0.4262606964
 O         -2.1241327483       -2.0146244010       -1.7771907168
 C         -2.5975919812       -0.7349192925       -1.5520071145
 O         -2.9257401315       -0.1218614762       -2.5896722107
 O         -2.3078497666       -0.6660977023        2.0624719089
 C         -3.1976337359        1.1691711604       -0.1259536288
 C         -2.0583090556        2.1155775226       -0.4137653658
 C         -2.2305954031        3.2396062561       -1.2131318490
 C         -1.1592292912        4.0660622317       -1.5035937414
 C          0.1072135742        3.7700841757       -1.0323378563
 C          0.2886635981        2.6478865517       -0.2323893559
 C         -0.7958382728        1.8489019226        0.0941016954
 H         -0.6384419897        0.9873435514        0.7254899467
 N          1.5570646037        2.2854330297        0.2528599397
 S          1.8927498162        0.6231262961        0.2355977009
 O          1.3196916195        0.0238566295       -0.9476499541
 O          1.5067934528        0.0619410356        1.5044745723
 C          3.6721921939        0.6459413021        0.1199854009
 C          4.4081905241        0.8792850893        1.2665765107
 C          5.7899148340        0.9337792767        1.1755529585
 C          6.4090319833        0.7547702401       -0.0528058628
 C          5.6573042829        0.5179361373       -1.1938399653
 C          4.2745853218        0.4645212627       -1.1102216272
 H          3.6481532788        0.2757639212       -1.9674889442
 H          6.1409987278        0.3746714923       -2.1466008909
 H          7.4845146795        0.7969634426       -0.1209776318
 H          6.3775907099        1.1143586200        2.0610308960
 H          3.8824365113        1.0013750547        2.1991837134
 H          2.3052023832        2.8219756669       -0.1657700241
 H          0.9496647953        4.3952236230       -1.2867552238
 H         -1.3062657923        4.9356347834       -2.1260025998
 H         -3.2054703358        3.4483705066       -1.6288211152
 H         -3.9346647606        1.2922739507       -0.9372191417
 C         -3.9072293466        1.4780350947        1.1831982247
 C         -3.2787155133        2.2759209658        2.2816249104
 C         -4.3877165589        2.8702394193        1.4697110890
 H         -5.3560863075        2.9944390062        1.9299582813
 H         -4.1285171894        3.6444848402        0.7639210219
 H         -3.4754523984        1.9689745181        3.2972222748
 H         -2.2754200424        2.6432840170        2.1287221816
 H         -4.5564568724        0.6656537887        1.4914042107
