  62
        -98.94525219
 C         -1.8046887997       -1.4703822268        0.0992185680
 C         -1.5591511603       -0.0883744088       -0.0909572710
 C         -2.6139988423        0.8126339372        0.3915595687
 C         -3.7175800391        0.3061421409        0.9703877213
 C         -4.8684823871        1.0998397348        1.5272150700
 C         -5.9016597144        1.5264288857        0.4752722923
 C         -5.4491909238        2.6424058786       -0.4673884803
 H         -6.3369453257        2.9913549372       -0.9987588402
 H         -5.0714394765        3.4803637291        0.1192415809
 C         -4.3944717308        2.2136460659       -1.4971220109
 H         -4.3768870780        1.1236014460       -1.5674341693
 H         -4.6737241756        2.5929266634       -2.4827781200
 C         -2.9803099934        2.7133447823       -1.2016814609
 H         -2.9598029077        3.8038577265       -1.2583553179
 H         -2.3111486432        2.3218057988       -1.9716429046
 C         -2.4319432986        2.2827411609        0.1648451200
 H         -1.3581030661        2.4813196249        0.1819738954
 H         -2.9117774150        2.8529579025        0.9599250313
 H         -6.1882857303        0.6490172109       -0.1091716246
 H         -6.7887180067        1.8711138014        1.0118602112
 H         -5.3656838474        0.4563679891        2.2563320006
 H         -4.4894860226        1.9817381624        2.0444757771
 O         -3.9098531189       -1.0299086291        1.1400047889
 C         -2.9645578713       -1.9468224999        0.7098521488
 O         -3.2645819583       -3.1380543650        0.9304136931
 H          1.6564577043       -1.7288258777       -1.4323177561
 C          1.6704456333       -1.7754357117       -0.3550289103
 C          0.5366953715       -2.1670327796        0.3367840829
 C          0.5874584203       -2.2100688464        1.7277445770
 C          1.7408662944       -1.8642053634        2.4048864398
 C          2.8681958684       -1.4595584978        1.7104411740
 C          2.8260490716       -1.4099051531        0.3241833820
 N          3.9639092559       -0.9946581907       -0.3948203626
 S          4.6460730898        0.4886564368       -0.0248475894
 O          5.5684197422        0.7540979688       -1.1059789883
 O          5.2180665635        0.4286502999        1.2968257672
 C          3.3116493706        1.6702336043       -0.0611776896
 C          2.5962495694        1.9258074690        1.0905498867
 C          1.5486738055        2.8305080582        1.0386354146
 C          1.2364068698        3.4594197441       -0.1560054918
 C          1.9591307248        3.1849147560       -1.3059706353
 C          3.0049368671        2.2787934001       -1.2614695138
 H          3.5987442848        2.0453202124       -2.1308555637
 H          1.7073841456        3.6711233918       -2.2348821004
 H          0.4243844534        4.1691319972       -0.1925200064
 H          0.9772692765        3.0382760428        1.9296115748
 H          2.8721377922        1.4236049049        2.0033733101
 H          3.8477301757       -1.0681779967       -1.3957640916
 H          3.7720191803       -1.1709066897        2.2221749555
 H          1.7640436989       -1.9049609669        3.4836401388
 H         -0.2988274155       -2.5100298077        2.2710425356
 C         -0.7696637719       -2.4899341116       -0.3450476669
 H         -1.1209848391       -3.4646460443        0.0208872451
 C         -0.6860219389       -2.5370319439       -1.8560064824
 C         -0.1256587963       -3.7492960584       -2.5360053709
 C         -1.5949363364       -3.4621800584       -2.6053054284
 H         -2.0119051981       -3.1275401561       -3.5434191822
 H         -2.2675624840       -4.0764489984       -2.0244954170
 H          0.2026599773       -4.5650195547       -1.9097852776
 H          0.4644269221       -3.6161229881       -3.4302637693
 H         -0.4932954990       -1.5659922303       -2.2976170475
 O         -0.5203429585        0.3719448946       -0.6296691543
