  62
        -98.93854930
 C          2.2449380758        0.7584585763       -0.0634300360
 C          3.2555600271        0.6054589513        0.9179453834
 C          4.1115052247       -0.5859890294        0.8040422999
 C          3.8800583679       -1.4696480986       -0.1817203759
 C          4.5878140862       -2.7721511877       -0.4604084921
 C          6.1181605535       -2.7875914964       -0.3422626658
 C          6.8131767990       -1.4752983799       -0.7335554720
 H          7.6073314962       -1.6948442147       -1.4495787929
 H          6.1038629308       -0.8094827608       -1.2281359030
 C          7.4436041191       -0.7545147259        0.4605222605
 H          8.2073924249       -0.0660030278        0.0912436450
 H          7.9458683279       -1.4928078377        1.0893615905
 C          6.4775824509        0.0599929541        1.3199351612
 H          7.0269731191        0.4222068559        2.1920991641
 H          6.1403154015        0.9399481177        0.7656308987
 C          5.2271882399       -0.6924714033        1.8037357565
 H          5.4569426989       -1.7282432956        2.0411710168
 H          4.8672003998       -0.1985917739        2.7102377996
 H          6.4746705297       -3.5943010296       -0.9850246833
 H          6.4022823132       -3.0498894904        0.6758559669
 H          4.1691563351       -3.5338087200        0.2040875129
 H          4.2959072674       -3.0408596085       -1.4786350621
 O          2.8822102657       -1.2946338855       -1.0935234234
 C          2.0467675427       -0.1888158578       -1.0664399759
 O          1.1988261166       -0.1757056598       -1.9805948753
 H         -0.8198386267        1.3654346754       -1.5536905865
 C         -1.0192566749        1.2141659080       -0.5047169854
 C         -0.0380095417        1.4978308080        0.4319863376
 C         -0.3104548870        1.2580187388        1.7762335228
 C         -1.5352579843        0.7523226223        2.1684953113
 C         -2.5106226864        0.4641783856        1.2291733765
 C         -2.2413550792        0.6819510808       -0.1146647533
 N         -3.2182847452        0.3776360416       -1.0785785969
 S         -3.9981645322       -1.1053148722       -0.9739269949
 O         -3.1754953235       -2.1062249779       -0.3344139807
 O         -4.4398430353       -1.3974608518       -2.3204934795
 C         -5.4261622168       -0.7523758991        0.0322911659
 C         -5.7037964923       -1.5356891421        1.1352990449
 C         -6.8272667255       -1.2495408866        1.8956493864
 C         -7.6494286045       -0.1912630654        1.5407251096
 C         -7.3581292499        0.5845785135        0.4284957547
 C         -6.2376178881        0.3029396828       -0.3363735160
 H         -5.9774930026        0.8791639219       -1.2083950506
 H         -7.9995061582        1.4071057165        0.1559304681
 H         -8.5222181675        0.0301885185        2.1344211785
 H         -7.0548679684       -1.8520742121        2.7603069938
 H         -5.0323199752       -2.3445194203        1.3765448373
 H         -2.9082260337        0.5457823907       -2.0253018867
 H         -3.4630966414        0.0563609061        1.5258090830
 H         -1.7335057231        0.5758670924        3.2147848174
 H          0.4593648350        1.4600132497        2.5078505047
 C          1.3361954433        1.9735772423        0.0316041496
 H          1.7427774587        2.5746629452        0.8559186098
 C          1.3557665633        2.8053186086       -1.2334104823
 C          0.8034843158        4.1981877604       -1.2020266867
 C          2.2810521598        3.9803333266       -1.3219984069
 H          2.7593259898        4.1878698145       -2.2675997276
 H          2.9012120639        4.1936466517       -0.4637704620
 H          0.2650648118        4.5594858588       -2.0647631576
 H          0.4189939975        4.5582036538       -0.2599283196
 H          1.2136473298        2.2222093785       -2.1352049200
 O          3.4317776117        1.4279700061        1.8550922750
