  62
        -98.93210173
 C          1.8525614705        1.2344212268        0.0061869005
 C          2.4466235700        0.3589085483       -0.9326936073
 C          3.5444144716       -0.4949382232       -0.4238918271
 C          3.9391148973       -0.3976648694        0.8574304576
 C          4.9811021504       -1.1653086010        1.6447106687
 C          6.0487614189       -1.9926513798        0.9330591087
 C          7.0472496448       -1.1800654940        0.1100242903
 H          7.6669105612       -0.5941801131        0.7934904632
 H          7.7012838078       -1.8782094005       -0.4170092097
 C          6.4351144280       -0.2138573435       -0.9011235246
 H          7.2549090307        0.2846444659       -1.4254359557
 H          5.8725543274        0.5600055116       -0.3749140214
 C          5.5316391513       -0.8538635022       -1.9537318223
 H          6.0660941404       -1.6632558220       -2.4548723137
 H          5.3050815639       -0.0892128433       -2.7015558681
 C          4.1895238302       -1.3996971368       -1.4341335601
 H          3.4983460088       -1.4581992376       -2.2802307977
 H          4.2970405505       -2.4049829658       -1.0330442412
 H          5.5850396391       -2.7585830936        0.3182597640
 H          6.6103255446       -2.5117859530        1.7146990870
 H          4.4195060371       -1.8279968484        2.3128558676
 H          5.4708404228       -0.4250197626        2.2852721913
 O          3.3473635756        0.4789791677        1.7218895876
 C          2.3081008124        1.2975391443        1.3261740953
 O          1.8784912394        2.0475345178        2.2254607114
 O          2.1133690335        0.2653776298       -2.1409219105
 C          0.6762929529        2.1617917870       -0.2694074362
 C         -0.5101037771        1.7232683007        0.5538363860
 C         -1.2839239429        2.6551207780        1.2368099995
 C         -2.3665716304        2.2546255004        1.9981495387
 C         -2.7115327346        0.9171977118        2.0726653242
 C         -1.9472136430       -0.0220963138        1.3913816254
 C         -0.8493481774        0.3807987872        0.6450346044
 H         -0.2567742810       -0.3655614528        0.1356273156
 N         -2.2786277111       -1.3954969558        1.4270471931
 S         -2.8731769973       -2.0344328428       -0.0039704731
 O         -3.2245134813       -3.4038620425        0.2981891395
 O         -1.9173402117       -1.8241068532       -1.0585530806
 C         -4.3554348677       -1.0880740524       -0.3100561817
 C         -5.5676889371       -1.5825347846        0.1306393344
 C         -6.7074590128       -0.8129920092       -0.0387362921
 C         -6.6138752220        0.4366321711       -0.6327379180
 C         -5.3889972068        0.9205231274       -1.0662019137
 C         -4.2457669989        0.1538555767       -0.9035219853
 H         -3.2786535202        0.4959860758       -1.2345259410
 H         -5.3154045536        1.8913261960       -1.5291048068
 H         -7.5006050339        1.0370839549       -0.7606289381
 H         -7.6615539518       -1.1882249230        0.2946693426
 H         -5.5924366383       -2.5608957273        0.5829370877
 H         -2.9075399254       -1.6368469644        2.1813264294
 H         -3.5575656693        0.5979597829        2.6628246464
 H         -2.9489855819        2.9884059942        2.5334959594
 H         -1.0147129180        3.6996525009        1.1849704571
 H          0.9748461875        3.1554967387        0.1073015011
 C          0.3186580517        2.3339624442       -1.7366934373
 C         -0.6500230820        1.4457659352       -2.4507633521
 C         -1.0291943376        2.8601579646       -2.1359545684
 H         -1.0810827214        3.5688341153       -2.9485512915
 H         -1.7559305712        3.0258205381       -1.3547190402
 H         -0.4187726048        1.1799869902       -3.4711372504
 H         -1.1042081757        0.6351979174       -1.9006602526
 H          1.1674435821        2.6744039018       -2.3191395324
