  62
        -98.93701100
 C         -2.5060297431       -1.4566565323        0.1321818626
 C         -2.5233945113       -0.3833306057       -0.7902770682
 C         -3.6168065684        0.5899707606       -0.6279720673
 C         -4.5159923717        0.4138739633        0.3568704229
 C         -5.6338606209        1.3570664089        0.6994371989
 C         -5.0799255716        2.5670401950        1.4786946365
 C         -5.2007001114        3.9007001000        0.7411997121
 H         -6.2378685954        4.2393186870        0.7867598801
 H         -4.5916805294        4.6289516293        1.2810233504
 C         -4.7762639871        3.8902366259       -0.7304921138
 H         -5.5778420656        3.4721930650       -1.3412738693
 H         -4.6632758276        4.9325494634       -1.0361176387
 C         -3.4755639880        3.1415447928       -1.0498186157
 H         -2.8307802767        3.0928309257       -0.1715909780
 H         -2.9323653812        3.7112932029       -1.8069642499
 C         -3.6745636075        1.7227172663       -1.6153830650
 H         -4.6175532546        1.6789828799       -2.1675821901
 H         -2.8678292213        1.5161568631       -2.3251530667
 H         -5.6017819459        2.6556567947        2.4326571906
 H         -4.0305287327        2.3733665044        1.7116106226
 H         -6.1328100035        1.6828584455       -0.2104218077
 H         -6.3473612663        0.8054977962        1.3118131146
 O         -4.4626011905       -0.6283331591        1.2260429374
 C         -3.4597208210       -1.5778134649        1.1452004906
 O         -3.5255569963       -2.4694291531        2.0143592996
 O         -1.6794320976       -0.2392163725       -1.7147841718
 C         -1.4180304783       -2.5187960881        0.0873380227
 C         -0.1089674475       -1.8662190574        0.4588355844
 C          0.1598443223       -1.6120203929        1.8013533356
 C          1.3198775387       -0.9623629022        2.1773134171
 C          2.2321017917       -0.5433828805        1.2235118566
 C          1.9636151115       -0.7748951210       -0.1180626428
 C          0.8067103733       -1.4476251086       -0.4924494080
 H          0.6062607833       -1.6114327016       -1.5391411109
 N          2.8779299896       -0.3508152188       -1.0959244629
 S          3.5572925857        1.1768598926       -0.9648162228
 O          2.6824569000        2.1040555508       -0.2852181591
 O          3.9494812976        1.5309024516       -2.3117554140
 C          5.0257086363        0.8979562639        0.0055222238
 C          5.2865870835        1.6946121312        1.1030795618
 C          6.4413481562        1.4695403587        1.8364460176
 C          7.3112538992        0.4577740432        1.4602744827
 C          7.0364711947       -0.3317795000        0.3535499907
 C          5.8845549974       -0.1111647752       -0.3842959725
 H          5.6361724751       -0.7012137145       -1.2505007164
 H          7.7151884090       -1.1179191542        0.0643845853
 H          8.2083364889        0.2834773102        2.0331509492
 H          6.6561922733        2.0828373513        2.6968363420
 H          4.5781446543        2.4655566545        1.3620963571
 H          2.5662195080       -0.5247989861       -2.0407422787
 H          3.1328976414       -0.0253164808        1.5092273659
 H          1.5170637518       -0.7763687552        3.2222411104
 H         -0.5629264239       -1.9215597353        2.5439769560
 H         -1.6725440336       -3.2405126245        0.8748266589
 C         -1.3927169080       -3.2411716115       -1.2431996707
 C         -0.6469507330       -4.5355039910       -1.3601576711
 C         -2.1450869961       -4.5281374804       -1.3890585155
 H         -2.6452059849       -4.7281554812       -2.3248706132
 H         -2.6766008984       -4.8964031323       -0.5236990075
 H         -0.1165750879       -4.7454042691       -2.2764132221
 H         -0.1593296583       -4.9095636520       -0.4727704133
 H         -1.3905119739       -2.5731612671       -2.0955426491
