  62
        -98.94343742
 C         -1.8602061400       -0.2684102593       -0.2395335902
 C         -2.9751382702       -0.4925520091       -1.0812152100
 C         -4.2807422700       -0.5659281592       -0.4124021198
 C         -4.3412391798       -0.4379869995        0.9260338702
 C         -5.6087325297       -0.4459689396        1.7297389304
 C         -6.1666015196        0.9735542304        1.9034958408
 C         -6.2556488498        1.7661556007        0.5993990310
 H         -6.6900282197        2.7390879206        0.8391505713
 H         -5.2463330998        1.9483788307        0.2235095909
 C         -7.0896653900        1.0908932010       -0.4982381690
 H         -7.7294092799        0.3243877809       -0.0593217290
 H         -7.7441600100        1.8386168111       -0.9511482787
 C         -6.2665279902        0.4753025712       -1.6312819093
 H         -5.5577195902        1.2145599612       -2.0128641492
 H         -6.9475804104        0.2233200514       -2.4486146692
 C         -5.4892046302       -0.7981976089       -1.2752419697
 H         -6.1620099602       -1.5221828590       -0.8108457497
 H         -5.1124781304       -1.2288378187       -2.2078264298
 H         -7.1571949895        0.9017612203        2.3562525310
 H         -5.5166084195        1.5187398002        2.5915960909
 H         -6.3431470498       -1.0777907095        1.2338781804
 H         -5.3888815995       -0.8634816598        2.7137328103
 O         -3.2461608797       -0.2394917897        1.7031694101
 C         -1.9796978298       -0.1430627496        1.1448016099
 O         -1.0666224996        0.0470783402        1.9692248798
 H          2.1870926400        0.0062412105       -0.1960087508
 C          1.7751365200       -0.9743418595       -0.0248749909
 C          0.4408668099       -1.2309905694       -0.3009102908
 C         -0.0475168201       -2.5166663994       -0.0816856910
 C          0.7702832900       -3.5081789896        0.4229916687
 C          2.1011418000       -3.2470522597        0.6978982385
 C          2.6047595400       -1.9741465197        0.4654675587
 N          3.9481539101       -1.6738359998        0.7353839385
 S          4.8201597900       -0.7347475196       -0.3401764114
 O          4.3695232797       -0.9221818092       -1.6993034314
 O          6.2043477400       -1.0710326297       -0.0799816517
 C          4.5395335201        0.9453627203        0.1767458990
 C          4.4443032104        1.2294094000        1.5246197891
 C          4.2785197805        2.5472342299        1.9197537494
 C          4.2206646004        3.5541973002        0.9680711397
 C          4.3234068101        3.2530383105       -0.3811123104
 C          4.4845349700        1.9361577805       -0.7833875907
 H          4.5567153698        1.6563052308       -1.8223176508
 H          4.2776513600        4.0369294306       -1.1205514602
 H          4.0930592305        4.5790588601        1.2793202999
 H          4.1944335207        2.7847280097        2.9680801895
 H          4.4898175704        0.4235495299        2.2379546289
 H          4.4955318701       -2.4484955899        1.0812878983
 H          2.7434708201       -4.0216327598        1.0888497682
 H          0.3716119400       -4.4965400696        0.5965705185
 H         -1.0841528501       -2.7279448493       -0.3066306309
 C         -0.4794443701       -0.1736452792       -0.8598140904
 H         -0.6238313803       -0.3863461090       -1.9305093004
 C          0.0620580500        1.2337320107       -0.7133982601
 C          0.9806597198        1.8095276509       -1.7480188402
 C         -0.4322330301        2.2975626809       -1.6457794698
 H         -0.6096483200        3.2871943309       -1.2526938296
 H         -1.1350948903        1.9977510711       -2.4095293898
 H          1.2463167197        1.1832078011       -2.5866876304
 H          1.7731309599        2.4654481008       -1.4204659702
 H          0.2220067402        1.5092371305        0.3232011999
 O         -2.8812905604       -0.6319362688       -2.3312563601
