  62
        -98.93896101
 C         -2.5330427285       -0.3509596917        0.1213475076
 C         -2.3879372448        0.5681491478        1.1921553287
 C         -2.2231554601        1.9864506664        0.8422781359
 C         -2.2325746864        2.3385173519       -0.4547104770
 C         -1.9724325201        3.7014337869       -1.0328798416
 C         -0.4839006503        3.8431766254       -1.3988406767
 C          0.4072472086        4.3549178248       -0.2685651352
 H          1.4386111589        4.3024500125       -0.6255105211
 H          0.1762020938        5.4042641272       -0.0706503839
 C          0.3007847143        3.5652025628        1.0385576053
 H          0.2605977351        2.4989789136        0.8043726798
 H          1.2149098498        3.7377852810        1.6104041408
 C         -0.9072319730        3.9748672962        1.8949498646
 H         -0.5728363555        4.1763682780        2.9145621136
 H         -1.3095033278        4.9120467061        1.5099213077
 C         -2.0350120589        2.9350386143        1.9945113546
 H         -2.9819717714        3.4532401031        2.1780080512
 H         -1.8580554272        2.2869171945        2.8582607857
 H         -0.1188905668        2.8644333559       -1.7246815493
 H         -0.3911392292        4.5275997495       -2.2451368462
 H         -2.2848827062        4.4812028428       -0.3440418006
 H         -2.5662184384        3.7759667516       -1.9463435354
 O         -2.4304492880        1.4369549339       -1.4510177122
 C         -2.5254152670        0.0786461482       -1.2051463688
 O         -2.6133417677       -0.6053145748       -2.2477391448
 O         -2.3791174522        0.2068148057        2.4002458183
 C         -2.5261357667       -1.8235878269        0.5080671589
 C         -1.0772427650       -2.2498480017        0.5499258712
 C         -0.4755081711       -2.7037843337        1.7170975647
 C          0.8879095458       -2.9427471144        1.7623174576
 C          1.6828503619       -2.6959044488        0.6562610984
 C          1.0852179009       -2.2521162414       -0.5150982831
 C         -0.2846159828       -2.0687517497       -0.5749066006
 H         -0.7307825450       -1.7115467981       -1.4918937501
 N          1.9080319249       -1.8653496930       -1.6128798722
 S          2.2434404918       -0.2092923088       -1.4903161679
 O          1.0728740249        0.5494268453       -1.1081185344
 O          2.8611346577        0.1642266406       -2.7447507066
 C          3.4456082144       -0.1786706726       -0.1815069505
 C          4.7343929888       -0.5899868262       -0.4605360866
 C          5.6652157970       -0.6128280978        0.5656020520
 C          5.2912083058       -0.2302754302        1.8454945031
 C          3.9929155678        0.1795903666        2.1086166393
 C          3.0570174552        0.2050498192        1.0864090861
 H          2.0351998427        0.5125508656        1.2463016754
 H          3.7016830731        0.4749282153        3.1037423694
 H          6.0157491393       -0.2513109370        2.6441939440
 H          6.6759609798       -0.9300495808        0.3656427190
 H          4.9770332885       -0.8745295931       -1.4708677319
 H          1.4485957547       -2.0143617708       -2.5026907000
 H          2.7513062870       -2.8335768730        0.6912089278
 H          1.3402680538       -3.2934470473        2.6769253805
 H         -1.0792961800       -2.8359199788        2.6026424808
 H         -2.9200316395       -1.8653406407        1.5324438814
 C         -3.3613045479       -2.7311908961       -0.3678177771
 C         -3.7946405195       -4.0589625572        0.1760207660
 C         -4.7999277533       -2.9654365669       -0.0215735211
 H         -5.5126434810       -3.0538571895       -0.8274662895
 H         -5.1907110587       -2.4669636417        0.8534081379
 H         -3.8168061940       -4.9051831336       -0.4931118552
 H         -3.5062993686       -4.3037419771        1.1869140365
 H         -3.1086810095       -2.6740179608       -1.4182097610
