  62
        -98.94208487
 C         -0.5974468733       -1.4485972805        0.0520931052
 C         -1.3913191118       -0.8516397431        1.0552544625
 C         -2.4325980247        0.0933311987        0.6075103901
 C         -2.5354137937        0.3664843275       -0.7068303097
 C         -3.5695545087        1.2081661258       -1.4059266821
 C         -4.9259698733        0.4930388182       -1.5198402573
 C         -5.3965376267       -0.2004549052       -0.2441051286
 H         -6.3160206196       -0.7423994979       -0.4808184638
 H         -4.6537846979       -0.9416243187        0.0567002130
 C         -5.6924191420        0.7277286938        0.9319140050
 H         -6.4569132786        1.4494669234        0.6359115495
 H         -6.1107168814        0.1120481509        1.7323781422
 C         -4.4945010088        1.4926661173        1.5000265029
 H         -4.7967010732        1.8958502616        2.4711362431
 H         -4.2448340962        2.3466167807        0.8761807526
 C         -3.2557878486        0.6377394019        1.7501088207
 H         -3.5372416601       -0.2283604091        2.3601411083
 H         -2.5546660952        1.2072372250        2.3731330107
 H         -4.8439416668       -0.2675187755       -2.3000634965
 H         -5.6737955935        1.2219607361       -1.8365998841
 H         -3.6833681112        2.1645449696       -0.9063995056
 H         -3.1914958511        1.3940206853       -2.4129954847
 O         -1.6909715975       -0.1742067621       -1.6307386779
 C         -0.7201175831       -1.0963567538       -1.2911949639
 O         -0.0470746803       -1.5181022889       -2.2504506045
 O         -1.2581171301       -1.1122592733        2.2834632090
 C          0.4215331553       -2.5018220165        0.4407201354
 C          1.8036694145       -2.1272913610       -0.0319882161
 C          2.6931603837       -3.0444867006       -0.5771034548
 C          3.9565727930       -2.6422850400       -0.9739629489
 C          4.3606499116       -1.3285980275       -0.8302177723
 C          3.4790351360       -0.4028327186       -0.2811758934
 C          2.2151988586       -0.8086356425        0.1141751541
 H          1.5361279529       -0.0906598830        0.5507545678
 N          3.8478418361        0.9399945992       -0.1580220364
 S          3.0715754804        2.0102003473        0.8466814344
 O          3.9316736384        3.1752726234        0.8461283196
 O          2.7954745792        1.4402942629        2.1451573574
 C          1.5602035595        2.4215498602        0.0030676004
 C          1.5978524526        2.6341315563       -1.3602776717
 C          0.4403379247        3.0348192361       -2.0069334940
 C         -0.7250998766        3.2275215644       -1.2821849302
 C         -0.7489130268        3.0025477942        0.0850230266
 C          0.4034447589        2.5931642864        0.7359091378
 H          0.4244077825        2.3950704233        1.7966419354
 H         -1.6558357540        3.1451367057        0.6501221596
 H         -1.6200430431        3.5542828689       -1.7870312124
 H          0.4507549369        3.1983415672       -3.0725370478
 H          2.5224716628        2.4824072600       -1.8920506052
 H          4.8120970199        1.1669277392       -0.3433143332
 H          5.3450200952       -1.0154989596       -1.1422557286
 H          4.6372488753       -3.3635986186       -1.4000981215
 H          2.3974137135       -4.0739366148       -0.6947218839
 H          0.4314253654       -2.5100383896        1.5418060509
 C         -0.0347698116       -3.8607870002       -0.0524088797
 C          0.2970219228       -5.1026972966        0.7181906364
 C         -1.1074931157       -4.5811191049        0.7062491934
 H         -1.8576483127       -5.1242195881        0.1512159983
 H         -1.4850022964       -4.1046183800        1.5994211385
 H          0.5095078611       -6.0086586010        0.1707050427
 H          0.8701491318       -4.9899049547        1.6261474629
 H         -0.0623058000       -3.9195155440       -1.1350512985
