  62
        -98.93491060
 C         -1.7098547503       -0.9069009400        0.3753831494
 C         -2.1228075801        0.4464433001        0.3525593305
 C         -3.5740079500        0.6874368102        0.4902575711
 C         -4.4025851201       -0.3547275598        0.6686383106
 C         -5.9021886300       -0.3257917196        0.7727670012
 C         -6.5459738005       -0.5661661686       -0.6031430088
 C         -6.7404888406        0.6904665221       -1.4507823579
 H         -7.0749172110        0.3674218628       -2.4393648880
 H         -7.5392288004        1.2956158619       -1.0167126572
 C         -5.4978025605        1.5695527720       -1.6159749077
 H         -4.6239404107        0.9426485820       -1.8027694484
 H         -5.6430164207        2.1906236126       -2.5021611172
 C         -5.2387520100        2.4827710211       -0.4083086871
 H         -5.0974630699        3.5081653013       -0.7561741464
 H         -6.1250083398        2.4915349608        0.2261452832
 C         -4.0040059198        2.1279272603        0.4353662822
 H         -4.1564759594        2.4855372896        1.4591836325
 H         -3.1312287798        2.6627827405        0.0471872923
 H         -5.9227682008       -1.2828439683       -1.1443194195
 H         -7.5237012605       -1.0295798885       -0.4568308588
 H         -6.1846228599       -1.1452726500        1.4369091307
 H         -6.2400994697        0.6105039501        1.2068302319
 O         -3.9572634303       -1.6395411699        0.7325317496
 C         -2.6173087703       -1.9474561300        0.5919919890
 O         -2.3584484205       -3.1633542001        0.6876646680
 O         -1.3362490599        1.4196085001        0.2199324609
 C         -0.2520564104       -1.3083882801        0.2273164386
 C          0.6312772800       -0.4135569308        1.0601624990
 C          0.4973859605       -0.4453657918        2.4461689390
 C          1.2842166809        0.3552548275        3.2504179293
 C          2.2396746008        1.1867090978        2.6920214595
 C          2.3797692504        1.2268552887        1.3105156295
 C          1.5776805300        0.4309798394        0.5033500192
 H          1.6718829897        0.5202091801       -0.5651524607
 N          3.3367065203        2.0578740790        0.7141909598
 S          4.0923817298        1.6043991498       -0.6996665708
 O          5.3500913899        2.3217157696       -0.6793018507
 O          3.2490654494        1.8587274808       -1.8400306703
 C          4.3921471896       -0.1490286203       -0.5447543221
 C          3.9717699891       -1.0009395395       -1.5454428025
 C          4.2080936289       -2.3603631597       -1.4154269336
 C          4.8562255692       -2.8427206806       -0.2892426141
 C          5.2784124397       -1.9737463913        0.7052814964
 C          5.0475427899       -0.6137359412        0.5783301274
 H          5.3707374502        0.0855180582        1.3319300378
 H          5.7844204899       -2.3521997220        1.5786713059
 H          5.0336018591       -3.9017193707       -0.1874207949
 H          3.8820807686       -3.0369880591       -2.1895359639
 H          3.4649672789       -0.5839413989       -2.4013182921
 H          3.9538447606        2.5401146584        1.3495870999
 H          2.8584946511        1.8112540572        3.3180776698
 H          1.1605428912        0.3275558568        4.3225885393
 H         -0.2459591395       -1.0989966220        2.8826687388
 H         -0.1957199704       -2.3234817104        0.6543286379
 C          0.2189806391       -1.4199593892       -1.2149717916
 C         -0.7205645213       -1.8165296783       -2.3130365716
 C         -0.1698428810       -0.4243194784       -2.2642640708
 H          0.5699742188       -0.1306851080       -2.9954257708
 H         -0.8242619608        0.3814356215       -1.9708883400
 H         -0.3613896616       -2.4877218178       -3.0784365022
 H         -1.7590757212       -1.9656431083       -2.0548053313
 H          1.2261918091       -1.8215953493       -1.2756368622
