  62
        -98.94118801
 C          1.8956644313        1.5591098011        0.1953621345
 C          2.5403761791        0.6768313167        1.1024703816
 C          3.4729170139       -0.2938936911        0.5200826766
 C          3.6919823636       -0.2913516552       -0.8069743994
 C          4.6587537697       -1.1743373155       -1.5490698789
 C          4.1079476537       -2.5634663081       -1.8987619617
 C          3.9591676812       -3.5198553574       -0.7150244049
 H          4.9001637850       -3.5655669013       -0.1660966034
 H          3.7740949097       -4.5137773679       -1.1272590064
 C          2.8155668395       -3.1611234354        0.2441755957
 H          2.2415792397       -4.0623014676        0.4728311970
 H          2.1386619164       -2.4601493840       -0.2504998677
 C          3.2678639204       -2.5579193568        1.5744489820
 H          3.8393763952       -3.2995890446        2.1365708264
 H          2.3801459592       -2.3020269839        2.1585923124
 C          4.1200198336       -1.2897897998        1.4345130432
 H          5.1173428393       -1.5435967333        1.0755402790
 H          4.2091965576       -0.8257519733        2.4196669584
 H          4.7953193396       -3.0136217751       -2.6187784825
 H          3.1418595111       -2.4429252031       -2.3948219882
 H          5.5737587706       -1.2821803769       -0.9655031006
 H          4.8999440521       -0.6559950445       -2.4798066219
 O          3.0546594677        0.5656904034       -1.6459000024
 C          2.1258051185        1.4916494249       -1.1793164627
 O          1.6022402484        2.1635730001       -2.0880520803
 O          2.3546043477        0.7129937343        2.3472531104
 C          0.9550726307        2.5847415165        0.8044763515
 C         -0.4723148939        2.1005404464        0.8156290933
 C         -1.2425175616        2.1703659660        1.9705437696
 C         -2.5557607107        1.7321091916        1.9703328322
 C         -3.1236292480        1.2079923180        0.8232817056
 C         -2.3558370322        1.1179499768       -0.3313503681
 C         -1.0419004820        1.5640875069       -0.3308654915
 H         -0.4547875510        1.5049010964       -1.2358198474
 N         -2.9136612788        0.5618708355       -1.4944383910
 S         -3.8050230086       -0.8443489166       -1.3300488871
 O         -3.6366436558       -1.5539125467       -2.5786259240
 O         -5.1631063038       -0.5125553916       -0.9767100403
 C         -3.0453853271       -1.7445509084        0.0117705847
 C         -1.6977003093       -2.0346068981       -0.0688766485
 C         -1.0950092743       -2.7141924145        0.9768203088
 C         -1.8463365869       -3.0938162110        2.0785864841
 C         -3.1997100405       -2.8019465532        2.1416270206
 C         -3.8068767409       -2.1184782532        1.1003153486
 H         -4.8543291853       -1.8643259419        1.1105362893
 H         -3.7812980968       -3.0995166539        2.9990938238
 H         -1.3699192654       -3.6192308203        2.8910586432
 H         -0.0410592460       -2.9375174597        0.9315788377
 H         -1.1364384780       -1.7287868357       -0.9382760010
 H         -2.2691616334        0.5064671846       -2.2693531654
 H         -4.1473145945        0.8708826817        0.8008806856
 H         -3.1439333829        1.7979131643        2.8724986981
 H         -0.8019338390        2.5625244884        2.8751329807
 H          1.2801004840        2.6658508860        1.8538316781
 C          1.0992104798        3.9669657691        0.1809868069
 C          0.0670415646        4.5923586889       -0.7036254406
 C          0.2707041408        5.1109245294        0.6864362892
 H          0.7419836367        6.0729599180        0.8183891367
 H         -0.4925707054        4.8869453321        1.4162880635
 H          0.4156923696        5.1806950179       -1.5387467883
 H         -0.8328731775        4.0364810985       -0.9150086665
 H          2.1332475391        4.1886947007       -0.0648239422
