  62
        -98.94482619
 C          2.0158300780        1.3689893711        0.2912056810
 C          2.6412313465        0.7506340483       -0.8186833170
 C          3.7976927964       -0.0980041017       -0.5037450795
 C          4.2048260174       -0.2317807439        0.7715946791
 C          5.3823217804       -1.0401601283        1.2452084186
 C          5.0749517826       -2.5296476132        1.4521053043
 C          4.8846695195       -3.3392534198        0.1687227262
 H          5.7356009828       -3.1748618466       -0.4929395295
 H          4.8906529062       -4.3939358364        0.4511165724
 C          3.5803204469       -3.0375652370       -0.5829716113
 H          3.1015483016       -3.9751237483       -0.8749240422
 H          2.8857424356       -2.5209168453        0.0839025404
 C          3.7574683494       -2.2048520681       -1.8529093640
 H          4.3381390511       -2.7717874829       -2.5839243818
 H          2.7684217697       -2.0178618611       -2.2797434209
 C          4.4415030754       -0.8496773459       -1.6290800531
 H          4.3244409827       -0.2534498151       -2.5372042680
 H          5.5047440881       -0.9914435447       -1.4367620566
 H          5.9109255432       -2.9609614309        2.0075006600
 H          4.1816420471       -2.6194930717        2.0748168452
 H          6.2075332554       -0.9323646949        0.5409399187
 H          5.6856390319       -0.6153559606        2.2045641782
 O          3.5791151147        0.3861497092        1.8091684042
 C          2.4581619161        1.1745271760        1.5988001528
 O          1.9509318616        1.6363411778        2.6420923436
 O          2.2581924275        0.8977986697       -2.0074684546
 C          0.7978877052        2.2494493892        0.0769075897
 C         -0.2965538819        1.4563062973       -0.5961761778
 C         -1.0212028746        1.9197047018       -1.6857611882
 C         -2.0068298119        1.1332429344       -2.2583756106
 C         -2.2990488064       -0.1198810259       -1.7539427345
 C         -1.5960052808       -0.5832772893       -0.6482517989
 C         -0.6113835679        0.2064276934       -0.0757772413
 H         -0.0621987909       -0.1580599629        0.7842998296
 N         -1.9006300939       -1.8456406025       -0.1122239992
 S         -3.5140037350       -2.2528536222        0.0661401524
 O         -3.5491117479       -3.1820082409        1.1739671559
 O         -4.0302405997       -2.7490459560       -1.1852317895
 C         -4.3427126124       -0.7320315489        0.4964018371
 C         -3.9299238440       -0.0622543865        1.6312615635
 C         -4.5440955548        1.1339568072        1.9641880162
 C         -5.5566945480        1.6370092278        1.1614075348
 C         -5.9641210221        0.9495971718        0.0289276014
 C         -5.3510976065       -0.2459302839       -0.3105489283
 H         -5.6333196549       -0.8109861800       -1.1839334612
 H         -6.7532486539        1.3419371498       -0.5919190935
 H         -6.0302535467        2.5701633215        1.4225009442
 H         -4.2273126825        1.6694105883        2.8449371733
 H         -3.1425457544       -0.4802493059        2.2384151447
 H         -1.3664721244       -2.0855038643        0.7094021602
 H         -3.0490534016       -0.7515387201       -2.2016239228
 H         -2.5521588757        1.5003408713       -3.1141629643
 H         -0.8069832311        2.8923728903       -2.0962388392
 H          0.4459741985        2.5312822785        1.0801629171
 C          1.1870967456        3.5062137997       -0.6729658999
 C          0.4240493653        4.7782026574       -0.4611636464
 C          1.8104994615        4.6355518797        0.0889954030
 H          2.6121028196        5.1904112999       -0.3749413899
 H          1.9306668938        4.5068350596        1.1551719487
 H          0.2750572292        5.4369923438       -1.3032590533
 H         -0.4004844373        4.7567690216        0.2350561405
 H          1.5752628848        3.2965569501       -1.6629010233
