  62
        -98.93579859
 C         -2.3756878967       -0.5507340571        0.9041386348
 C         -3.4508707932       -1.0847892241        0.1503380983
 C         -4.7225871447       -0.3463447844        0.2387994248
 C         -4.8057691918        0.7485341878        1.0142200656
 C         -6.0166804495        1.6264141798        1.1378678613
 C         -5.9807267398        2.7669015571        0.1107223617
 C         -5.6769125429        2.3051635577       -1.3146234622
 H         -5.7064957727        3.1890242946       -1.9555497314
 H         -4.6569339660        1.9154414569       -1.3527884957
 C         -6.6457182497        1.2459441921       -1.8587646156
 H         -7.5590186057        1.2388157312       -1.2628424561
 H         -6.9258269893        1.5189880063       -2.8783318147
 C         -6.0698219921       -0.1700109670       -1.9194510067
 H         -6.7485673707       -0.7879358222       -2.5132715215
 H         -5.1072071382       -0.1517426852       -2.4365259380
 C         -5.8770909204       -0.8706256768       -0.5685119604
 H         -5.6492774403       -1.9215766827       -0.7690768187
 H         -6.8034267530       -0.8228133850        0.0071581213
 H         -6.9434916152        3.2807716525        0.1316683042
 H         -5.2083292347        3.4785865139        0.4115227795
 H         -6.0302114001        2.0535799590        2.1419713621
 H         -6.9121123769        1.0241985734        0.9973778144
 O         -3.7607813272        1.2150304895        1.7458245074
 C         -2.5275996993        0.5898680539        1.6974432877
 O         -1.6545239308        1.1317823070        2.4066322731
 O         -3.3758013976       -2.1141486267       -0.5670420529
 C         -0.9831757755       -1.1589535424        0.9119845089
 C         -0.1470483872       -0.6218430585       -0.2211604605
 C         -0.6229112617       -0.5977326586       -1.5288305050
 C          0.1707512460       -0.1158627789       -2.5534560912
 C          1.4541935540        0.3348720767       -2.2995433714
 C          1.9355000387        0.3230422541       -0.9957325601
 C          1.1304320534       -0.1463765934        0.0331225002
 H          1.5133170110       -0.1370943760        1.0432010448
 N          3.2242103173        0.7934216650       -0.6996282655
 S          4.0927518207        0.0040898536        0.5154346424
 O          3.9247288057       -1.4258628921        0.3881319622
 O          3.7387008696        0.5768129908        1.7897945708
 C          5.7556226825        0.4787930131        0.0827440160
 C          6.5425005781       -0.3900367428       -0.6493970397
 C          7.8217441152        0.0054377092       -1.0079727149
 C          8.2879851734        1.2566806771       -0.6336411696
 C          7.4864740198        2.1174069696        0.1018912017
 C          6.2070764528        1.7281024269        0.4650198483
 H          5.5515294522        2.3581509287        1.0435575153
 H          7.8533308888        3.0882432992        0.3936005072
 H          9.2835350412        1.5622415851       -0.9142961305
 H          8.4484820211       -0.6623696495       -1.5767143377
 H          6.1405008624       -1.3556263637       -0.9110276634
 H          3.7863557516        0.9511786397       -1.5248890048
 H          2.0759203910        0.7004810884       -3.1026161614
 H         -0.2095369196       -0.1036527151       -3.5639119796
 H         -1.6144670004       -0.9718367989       -1.7330403846
 H         -0.5208697496       -0.8099545268        1.8501159776
 C         -0.9889461914       -2.6814119591        0.9603254837
 C         -0.5812187373       -3.5524713819       -0.1854209561
 C          0.3106445264       -3.4303650935        1.0112759438
 H          0.3958510481       -4.2706588354        1.6840317847
 H          1.2235009998       -2.8605174273        0.9045924897
 H         -1.1316513300       -4.4686810499       -0.3346667574
 H         -0.2697936839       -3.0785260039       -1.1025878803
 H         -1.7901852871       -3.0594753388        1.5877319586
