  62
        -98.94111160
 C         -1.9034296475       -0.9203999456        0.2658778239
 C         -2.3142865459        0.0737545202        1.1880709727
 C         -2.5413920889        1.4169345059        0.6414503092
 C         -2.2945090824        1.6435746090       -0.6613489989
 C         -2.5163151495        2.9529772418       -1.3609620617
 C         -3.9301208948        3.0379835991       -1.9534589110
 C         -5.0358145228        2.6579572122       -0.9685934408
 H         -5.9891601474        2.7812725621       -1.4866156926
 H         -4.9399356455        1.5989710613       -0.7182457858
 C         -5.0453975269        3.4845668913        0.3248291281
 H         -6.0732386115        3.7808526232        0.5439466022
 H         -4.4666191350        4.3980894116        0.1847335887
 C         -4.5245217606        2.7406466231        1.5559330992
 H         -5.0376000797        1.7801315499        1.6486415131
 H         -4.7732815680        3.3312691890        2.4414987687
 C         -3.0124743498        2.4833383637        1.5901225077
 H         -2.4739372423        3.4173584497        1.4148002954
 H         -2.7562018363        2.1247765186        2.5916552678
 H         -4.0928534341        4.0561175255       -2.3114798618
 H         -3.9864818207        2.3623236056       -2.8099787210
 H         -2.3558712760        3.7651657601       -0.6542250136
 H         -1.7840626946        3.0361622198       -2.1660479538
 O         -1.8539857498        0.6799745510       -1.5076716697
 C         -1.6311859422       -0.6180410197       -1.0700470795
 O         -1.2137517514       -1.3833295085       -1.9593908582
 H          0.6230243470       -0.9228350052        1.0784780072
 C          0.8113297638       -1.8620175725        0.5763283687
 C         -0.2412526399       -2.7409091163        0.3494510396
 C          0.0237348371       -3.9421044892       -0.2933751171
 C          1.3078509050       -4.2366289752       -0.7192230184
 C          2.3428039571       -3.3407393966       -0.5294230885
 C          2.0887410214       -2.1391005070        0.1236532042
 N          3.1180798106       -1.2062506535        0.3502855309
 S          2.7238331847        0.4355121615        0.2801311807
 O          2.1825271766        0.8366453926        1.5560351435
 O          1.9092354524        0.7180496024       -0.8802799732
 C          4.3521662276        1.1363410644        0.0808459484
 C          5.1565786291        1.2720717100        1.1966927313
 C          6.4357840677        1.7821279167        1.0419278284
 C          6.8872390933        2.1450914766       -0.2184891354
 C          6.0680093316        2.0048526291       -1.3285949025
 C          4.7878971086        1.4937830555       -1.1809730353
 H          4.1117784531        1.3727882979       -2.0124363507
 H          6.4197763505        2.2905482559       -2.3068018641
 H          7.8828941001        2.5424559397       -0.3362693733
 H          7.0742672203        1.8954059432        1.9030511254
 H          4.7575924401        0.9848508860        2.1554584948
 H          3.9453504077       -1.4037320733       -0.1972206143
 H          3.3371001791       -3.5622473294       -0.8865348783
 H          1.5001574558       -5.1703123454       -1.2258382423
 H         -0.7777269266       -4.6355454142       -0.4879862915
 C         -1.6106082748       -2.3079203715        0.8104514914
 H         -1.5655793241       -2.1625784690        1.9039430877
 C         -2.7000981754       -3.3383193041        0.5565093847
 C         -4.1169140536       -2.9178327730        0.3069874492
 C         -3.3151576960       -3.5391890824       -0.7949515165
 H         -3.5618122565       -4.5457380519       -1.0998793599
 H         -2.9655309501       -2.9101885160       -1.5980861043
 H         -4.3202472581       -1.8578239829        0.2550145352
 H         -4.9106980681       -3.4939223968        0.7583863684
 H         -2.5669453308       -4.2264132527        1.1668109364
 O         -2.4798272139       -0.1534591115        2.4182023561
