  62
        -98.93340617
 C          2.5358250884        1.0024285655        0.3398016279
 C          2.6457950061       -0.1605910606        1.1354169474
 C          3.4895975178       -1.2541614343        0.6164760482
 C          4.0767016304       -1.1005285295       -0.5852292173
 C          4.9448339502       -2.0779313635       -1.3326389781
 C          4.1384197388       -3.2153543987       -1.9789177158
 C          3.0693846938       -3.8334192401       -1.0819744707
 H          2.3706797314       -3.0549004562       -0.7700454100
 H          2.5063030116       -4.5514442230       -1.6839726537
 C          3.5977319750       -4.5674869369        0.1482963600
 H          4.2769187964       -5.3604993069       -0.1722491778
 H          2.7414907000       -5.0410179767        0.6353262214
 C          4.3150928910       -3.7031009630        1.1878371742
 H          5.3299209257       -3.4719934258        0.8755971436
 H          4.4004152999       -4.2978508742        2.1020038338
 C          3.5787384104       -2.4226780255        1.5688787755
 H          2.5468189080       -2.6700033038        1.8430231385
 H          4.0298585615       -2.0204060780        2.4840379623
 H          4.8353420300       -3.9889123153       -2.3058926046
 H          3.6391445469       -2.8142573171       -2.8643955677
 H          5.7137517928       -2.4733235902       -0.6756259174
 H          5.4418937485       -1.5120122631       -2.1236311607
 O          3.9089392090        0.0244909294       -1.3371834878
 C          3.1442156684        1.0949933890       -0.9116934676
 O          3.0939537210        2.0411258236       -1.7194348436
 O          2.0572982399       -0.2908799869        2.2444046294
 C          1.6870053042        2.1542925341        0.8510844944
 C          0.4376383074        2.2483667614        0.0095302781
 C          0.1748475027        3.2924246877       -0.8660849798
 C         -0.9817535874        3.2891945497       -1.6276391236
 C         -1.8959536851        2.2568646227       -1.5306573280
 C         -1.6476080325        1.2115298104       -0.6492085761
 C         -0.4894948428        1.2173591597        0.1134551279
 H         -0.2888942973        0.4038071511        0.7996763465
 N         -2.5661079118        0.1481911550       -0.5470072261
 S         -4.2023185048        0.5631197914       -0.4492778156
 O         -4.6838741172        0.8350755344       -1.7803051212
 O         -4.3882806507        1.6224456186        0.5173837676
 C         -4.9131842059       -0.9570657234        0.1486636015
 C         -5.1379310553       -1.1111427829        1.5034938848
 C         -5.6760781099       -2.3032875477        1.9620540748
 C         -5.9758506300       -3.3160112599        1.0633216959
 C         -5.7440419055       -3.1464667981       -0.2936865162
 C         -5.2073520997       -1.9566674306       -0.7591121555
 H         -5.0197647939       -1.7760440258       -1.8046298049
 H         -5.9809012727       -3.9354180861       -0.9891497097
 H         -6.3957713943       -4.2420722947        1.4229481234
 H         -5.8599960563       -2.4368434757        3.0159567391
 H         -4.8992306541       -0.2936120674        2.1649896860
 H         -2.3156132323       -0.4923170922        0.1944240656
 H         -2.8009401999        2.2495925265       -2.1164258609
 H         -1.1737356346        4.1041864281       -2.3094516856
 H          0.8788583795        4.1020937619       -0.9623705554
 H          1.3853346437        1.8616074999        1.8670379760
 C          2.4773876877        3.4416154854        0.9318041204
 C          1.9780227220        4.5601278249        1.7951725910
 C          3.1898604150        3.7802252275        2.2055565534
 H          4.1565192267        4.2569817839        2.1433370208
 H          3.0977313741        3.0867444000        3.0287249932
 H          2.1115512321        5.5751272826        1.4534658281
 H          1.0599139336        4.3969425866        2.3393225151
 H          2.9734987425        3.6954923197        0.0028834456
