  62
        -98.94341196
 C         -2.4807778641       -1.1179033186        0.0086197963
 C         -3.4633201001       -0.6308767960        0.9129447644
 C         -4.4659036437        0.2837008416        0.3593468402
 C         -4.4298001763        0.5958954792       -0.9483950241
 C         -5.3989078610        1.4880137059       -1.6753615454
 C         -5.0800759898        2.9848990126       -1.5592862180
 C         -5.3597289451        3.6053452197       -0.1898644235
 H         -5.3033267525        4.6888184914       -0.3119692058
 H         -6.3786735190        3.3650578276        0.1150786194
 C         -4.3766792002        3.1809638840        0.9102495141
 H         -4.0555898219        4.0615201522        1.4711196905
 H         -3.4824774212        2.7496816655        0.4540011548
 C         -4.9460269188        2.1841274469        1.9198212378
 H         -4.1547568657        1.9240304931        2.6274302052
 H         -5.7584092626        2.6527933682        2.4795632067
 C         -5.4699055203        0.8838060631        1.2965152129
 H         -5.6456933530        0.1643652017        2.0999141421
 H         -6.4110072831        1.0669889719        0.7783561873
 H         -5.6894937258        3.5054763727       -2.3016475668
 H         -4.0312198554        3.1401628621       -1.8226016801
 H         -5.3499664203        1.2060691603       -2.7293955826
 H         -6.4100701466        1.3011617928       -1.3125126704
 O         -3.4856438741        0.0974569183       -1.7873436287
 C         -2.4831810609       -0.7500743601       -1.3366881026
 O         -1.6875516072       -1.0877797301       -2.2382337285
 H          0.2363418924       -0.8961763368       -1.1846790701
 C          0.6210666208       -0.8542042087       -0.1761715379
 C         -0.1282233422       -1.3944060511        0.8595620803
 C          0.3793084461       -1.3249255513        2.1517490135
 C          1.6049036866       -0.7306423895        2.3969410624
 C          2.3466484519       -0.1910910789        1.3615266910
 C          1.8467808584       -0.2514773540        0.0672090502
 N          2.5841297185        0.3137225084       -0.9907758709
 S          4.1610799371       -0.2267123951       -1.2065942304
 O          4.4660517401        0.0264583064       -2.5978161212
 O          4.3194585040       -1.5889191839       -0.7511198175
 C          5.1334538125        0.8684447949       -0.1932572519
 C          5.9437883700        0.3502672176        0.7979886235
 C          6.7003738588        1.2201747204        1.5678482058
 C          6.6339430481        2.5851078788        1.3336354399
 C          5.8169041072        3.0893182547        0.3324956320
 C          5.0593454022        2.2250914029       -0.4417513535
 H          4.4160745673        2.5747550247       -1.2320146967
 H          5.7679626501        4.1513060379        0.1531104814
 H          7.2226866646        3.2602581687        1.9343703031
 H          7.3366623230        0.8301245254        2.3459254820
 H          5.9585976508       -0.7176141048        0.9467408842
 H          2.0872053732        0.2926362632       -1.8704912718
 H          3.3006445082        0.2752360821        1.5460607233
 H          1.9863346147       -0.6851034690        3.4055184994
 H         -0.1989704859       -1.7340449266        2.9673726553
 C         -1.4492688946       -2.0734682082        0.5844741223
 H         -1.8669834121       -2.3891403668        1.5501177523
 C         -1.2386658680       -3.3093046545       -0.2698688258
 C         -0.6826910030       -4.5464632298        0.3660955407
 C         -2.1179520045       -4.5042327254       -0.0636760897
 H         -2.4178571025       -5.0775940771       -0.9279863989
 H         -2.8775082143       -4.4388511369        0.7017060935
 H          0.0091162689       -5.1497846611       -0.2015683251
 H         -0.4692696027       -4.5119912056        1.4236553048
 H         -0.9352889048       -3.0858045954       -1.2847161378
 O         -3.5048968358       -0.9588890247        2.1281004195
