  62
        -98.93876618
 C         -1.8409475424       -0.8251176481        0.3367342370
 C         -2.4323234123       -0.1838457285       -0.7762139873
 C         -3.5066905084        0.7814872608       -0.4770491465
 C         -3.8347904466        1.0208562283        0.8044067187
 C         -4.9258749767        1.9188934437        1.3184881048
 C         -6.2218019080        1.1227577467        1.5482056340
 C         -7.1284965050        1.0010413712        0.3240898050
 H         -7.9349762956        0.3118515272        0.5847570716
 H         -7.5824312406        1.9722958985        0.1162764025
 C         -6.4450053406        0.4982644238       -0.9502214750
 H         -5.7776581748       -0.3306961366       -0.7077757127
 H         -7.2193536367        0.1067212866       -1.6127217721
 C         -5.6666254396        1.5957163377       -1.6912355462
 H         -5.9432724683        2.5671097136       -1.2815639145
 H         -5.9673952712        1.6063646163       -2.7409068891
 C         -4.1383099849        1.4431571596       -1.6712319498
 H         -3.8214812844        0.8337008011       -2.5235573154
 H         -3.6787090677        2.4281021380       -1.8073717506
 H         -5.9444574784        0.1264493489        1.9020297126
 H         -6.7923391249        1.6048133082        2.3447087749
 H         -4.5820974880        2.3084512745        2.2791511301
 H         -5.0904811305        2.7522202980        0.6418737120
 O         -3.2123677338        0.4063621304        1.8487069177
 C         -2.2086167915       -0.5230317131        1.6466989940
 O         -1.7209608812       -0.9941998486        2.6949983627
 H          0.4039530901        0.4594871375        0.7750341557
 C          0.8992439459        0.0148199220       -0.0799357032
 C          0.4354636856       -1.1995781370       -0.5718817845
 C          1.0908042295       -1.7670215418       -1.6561429911
 C          2.1576570637       -1.1141698587       -2.2507362983
 C          2.6002841053        0.1053049554       -1.7740080385
 C          1.9657159781        0.6707099334       -0.6744102896
 N          2.4184726991        1.8995566809       -0.1667518182
 S          4.0680728106        2.1356399211       -0.0216797630
 O          4.2203438684        3.0813529573        1.0619624748
 O          4.6135943582        2.5444754105       -1.2921641099
 C          4.7364662944        0.5451475648        0.4345590602
 C          4.2662272360       -0.0544287569        1.5861962087
 C          4.7534196788       -1.3023377735        1.9387864741
 C          5.6986920779       -1.9259610574        1.1385099906
 C          6.1655550192       -1.3080932860       -0.0109727660
 C          5.6796888532       -0.0609520672       -0.3699626143
 H          6.0113551770        0.4538825486       -1.2568967559
 H          6.9019857650       -1.7943815097       -0.6300488652
 H          6.0726659458       -2.8991173233        1.4147589801
 H          4.3902557418       -1.7836155573        2.8327749968
 H          3.5333024789        0.4563257648        2.1905478468
 H          1.9256767843        2.2133239161        0.6557641982
 H          3.4156779366        0.6346802730       -2.2395583177
 H          2.6489130997       -1.5601329594       -3.1017970766
 H          0.7597436045       -2.7156038824       -2.0448269350
 C         -0.7368180684       -1.8456893091        0.1269576639
 H         -0.4074977769       -2.1447550911        1.1329778685
 C         -1.2768330782       -3.0648788601       -0.5906800303
 C         -0.6613736690       -4.4111632620       -0.3590098585
 C         -2.0154783383       -4.0997397223        0.2019599991
 H         -2.8809895469       -4.5688288022       -0.2414617134
 H         -2.1059390701       -3.9374270053        1.2665313210
 H          0.1688205753       -4.4700627600        0.3282698932
 H         -0.5988573436       -5.0995274256       -1.1881999792
 H         -1.6506573013       -2.8330610580       -1.5811625423
 O         -2.0876344049       -0.4073014121       -1.9657122631
