  62
        -98.94055401
 C         -2.3389970379        0.2055985248       -0.2723787894
 C         -3.5189104903        0.6155771422       -0.9377938357
 C         -4.7249994288       -0.1716460983       -0.6505967304
 C         -4.6394740598       -1.2226819322        0.1855279722
 C         -5.7985262987       -2.0776400959        0.6075581925
 C         -6.4483732710       -1.5377499644        1.8893261371
 C         -6.7551453191       -0.0408534835        1.8430557851
 H         -7.2381438721        0.2213622338        2.7868710372
 H         -5.8152883079        0.5143312406        1.7985839311
 C         -7.6522334125        0.3874734108        0.6733293255
 H         -8.4149975472        1.0722957866        1.0497804523
 H         -8.1698411447       -0.4816331038        0.2659185846
 C         -6.9190040418        1.1151510846       -0.4550194784
 H         -7.6677948527        1.5604894073       -1.1154548070
 H         -6.3234681023        1.9314624342       -0.0384292477
 C         -6.0020169414        0.2455954435       -1.3244759491
 H         -6.5525186158       -0.6267261819       -1.6823268175
 H         -5.7017670755        0.8424684973       -2.1906825891
 H         -7.3696111566       -2.0945049173        2.0700838581
 H         -5.7696361656       -1.7221164469        2.7252395482
 H         -5.4297930452       -3.0873814051        0.7951698010
 H         -6.5304560830       -2.1115679879       -0.1970005348
 O         -3.4822094774       -1.6016578569        0.7860825467
 C         -2.3054615867       -0.8956269106        0.5828436396
 O         -1.3243595199       -1.3438842828        1.2055176051
 O         -3.5593835829        1.5895130836       -1.7374354897
 C         -1.0585530726        0.9866122915       -0.5029171073
 C          0.0188833026        0.0801488574       -1.0439886378
 C         -0.2605378120       -0.6988490974       -2.1648094654
 C          0.6966107983       -1.5397090375       -2.6971053894
 C          1.9582683696       -1.6130065579       -2.1326775056
 C          2.2474418901       -0.8409537745       -1.0144710787
 C          1.2811159440        0.0004947363       -0.4793452026
 H          1.5350382305        0.5871768098        0.3871777587
 N          3.5088495019       -0.9154673023       -0.4026764221
 S          4.1543189067        0.4700486901        0.3112882735
 O          3.6060409387        0.6215566841        1.6353934992
 O          4.0044625850        1.6015450317       -0.5762486942
 C          5.8702327808       -0.0036983311        0.4238186456
 C          6.7628492436        0.4373659128       -0.5347505155
 C          8.0876366627        0.0381592446       -0.4513493961
 C          8.4943690180       -0.7931076150        0.5813791045
 C          7.5869636783       -1.2273153448        1.5365347041
 C          6.2613807069       -0.8307984545        1.4599809539
 H          5.5227039676       -1.1350971193        2.1832753023
 H          7.9072724516       -1.8714097966        2.3395195687
 H          9.5256406765       -1.1026387341        0.6441919580
 H          8.7960726887        0.3764528579       -1.1902261417
 H          6.4027861671        1.0889555549       -1.3145983067
 H          4.1934619788       -1.3995522854       -0.9671446276
 H          2.7076005607       -2.2694319232       -2.5482987244
 H          0.4626990211       -2.1391583525       -3.5642010655
 H         -1.2446113470       -0.6363453597       -2.6098297290
 H         -1.3021774414        1.7269513722       -1.2802659487
 C         -0.6541263639        1.7231812827        0.7563410957
 C          0.1782725156        2.9660183120        0.6670134865
 C         -1.2664185635        3.0575688267        1.0542956892
 H         -1.5126012223        3.2950517017        2.0783702956
 H         -1.9646723540        3.4546555043        0.3319366542
 H          0.9322118666        3.1345745783        1.4218233940
 H          0.4668359892        3.3036566861       -0.3172359792
 H         -0.4797851097        1.0546852832        1.5930573874
