  62
        -98.94264526
 C          1.4919074293        0.9833362969       -0.7873329585
 C          1.2021916501        1.8554979663        0.2875762113
 C          0.0214629462        2.7233912893        0.1267368689
 C         -0.7362046912        2.6089935459       -0.9769005223
 C         -1.9513459224        3.4057613700       -1.3867102304
 C         -2.9676580782        3.7845130558       -0.3041266113
 C         -3.1900118956        2.7221127124        0.7820657268
 H         -4.2601599130        2.5279697850        0.8799857630
 H         -2.7137261510        1.7790360836        0.5062389347
 C         -2.6569676586        3.1462642577        2.1516321982
 H         -3.1539484648        2.5477656991        2.9190096893
 H         -2.9121963415        4.1938929323        2.3295315230
 C         -1.1534821970        2.9493997745        2.3318151533
 H         -0.8769258462        3.3202683021        3.3222128331
 H         -0.9287928812        1.8789809449        2.3111049503
 C         -0.2707974514        3.6411362356        1.2786570771
 H         -0.7142952992        4.5776163894        0.9472693583
 H          0.6963890011        3.8587589204        1.7403528373
 H         -3.9110512581        3.9830617539       -0.8163108988
 H         -2.6660008008        4.7177238527        0.1694074107
 H         -1.6020873342        4.3182866974       -1.8799831389
 H         -2.4442597380        2.7994218899       -2.1510555879
 O         -0.4475549342        1.7144876545       -1.9664315947
 C          0.6544599922        0.8801871474       -1.8951076664
 O          0.7762356577        0.1037144945       -2.8646564401
 H          0.4416810657       -1.2828768864       -0.1894488106
 C          1.1821826438       -1.4898394365        0.5696925019
 C          2.4386896560       -0.9070510083        0.4639136450
 C          3.3893600549       -1.1999723937        1.4319142723
 C          3.0677439668       -2.0268224488        2.4954279066
 C          1.7976929685       -2.5580199421        2.6263027925
 C          0.8439220233       -2.2816415046        1.6527742526
 N         -0.4590239812       -2.7960324781        1.7318200186
 S         -1.7341344204       -1.8598459879        1.1793521112
 O         -1.5037978420       -0.4507883326        1.3890966051
 O         -2.8968406436       -2.4148617425        1.8429960356
 C         -1.8411155936       -2.2294034735       -0.5578007521
 C         -2.1448948373       -1.2150640643       -1.4427798224
 C         -2.2507086791       -1.5080628245       -2.7925018876
 C         -2.0572900272       -2.8084280010       -3.2305055706
 C         -1.7617456460       -3.8192057996       -2.3282920615
 C         -1.6538102092       -3.5314269400       -0.9774819946
 H         -1.4194779271       -4.2890470402       -0.2484303860
 H         -1.6105997458       -4.8289317905       -2.6748378894
 H         -2.1333393043       -3.0319033919       -4.2829130600
 H         -2.4674945129       -0.7179201929       -3.4932269289
 H         -2.2706735786       -0.2119914450       -1.0648919571
 H         -0.6823474278       -3.2754376085        2.5917864893
 H          1.5411417344       -3.1750493349        3.4739733052
 H          3.8125762441       -2.2434802062        3.2462207004
 H          4.3753031133       -0.7703722687        1.3638035009
 C          2.6688010997        0.0262595471       -0.7004042028
 H          2.6453162253       -0.5680957845       -1.6257860202
 C          3.9796850712        0.7789481160       -0.6322689384
 C          5.2377370834        0.1468733154       -1.1454339736
 C          4.5992082742        1.2694595221       -1.9051500085
 H          5.0812632311        2.2354551467       -1.9048009202
 H          4.0857227578        1.0384441062       -2.8272675064
 H          6.1631144784        0.3437318132       -0.6254834959
 H          5.1651641521       -0.8480900616       -1.5577581602
 H          4.0448467278        1.4231393572        0.2366987187
 O          1.9078136742        1.9289775489        1.3275454176
