  62
        -98.93954009
 C         -2.6764353740       -0.0878061030       -0.5032946237
 C         -2.8074638893        0.8458238721        0.5564694994
 C         -2.3932831726        2.2220033200        0.2748569384
 C         -1.9129636426        2.5318540071       -0.9426803173
 C         -1.4264019029        3.8846006445       -1.3865389875
 C          0.0313601586        4.1641439188       -0.9956142313
 C          0.2562660606        4.4690193409        0.4860428106
 H          1.2635835313        4.8795607959        0.5802248266
 H         -0.4439208377        5.2401189477        0.8104721986
 C          0.1394297000        3.2440964141        1.4039690006
 H          0.2300003486        2.3300569684        0.8112534520
 H          0.9739755578        3.2308654033        2.1097028375
 C         -1.1477865759        3.1828339874        2.2266591725
 H         -1.1692727679        4.0143676392        2.9355764457
 H         -1.1368491967        2.2508207599        2.7984202707
 C         -2.4368340815        3.2163096168        1.3955365975
 H         -3.2709181655        2.9451170714        2.0478652306
 H         -2.6071131904        4.2200795250        1.0063326566
 H          0.3694672593        5.0233385365       -1.5799634452
 H          0.6390276935        3.3010544091       -1.2799061690
 H         -2.0725228621        4.6628233885       -0.9791531545
 H         -1.5018505340        3.9011453316       -2.4759005201
 O         -1.8284762686        1.6204027458       -1.9430718221
 C         -2.1541603236        0.2820141611       -1.7437970141
 O         -1.9548421363       -0.4272040644       -2.7469164732
 O         -3.2585071789        0.5335207145        1.6932503420
 C         -3.0021953041       -1.5296521752       -0.1522724599
 C         -1.8430262184       -2.1136039461        0.6187655541
 C         -2.0412842925       -2.9036661374        1.7441597599
 C         -0.9603560608       -3.3913834274        2.4578838148
 C          0.3318874358       -3.0732233442        2.0814491645
 C          0.5407862189       -2.2794853959        0.9592406510
 C         -0.5435070187       -1.8321862253        0.2213674306
 H         -0.3729382338       -1.2242888674       -0.6533104843
 N          1.8441286777       -1.9194164510        0.5489425955
 S          2.1748751086       -0.2592193079        0.4612054341
 O          2.1797858818        0.2927379391        1.8004949635
 O          1.3004854264        0.3729252593       -0.4903676337
 C          3.8359991154       -0.3136865605       -0.1804906645
 C          4.9100392649       -0.0619842771        0.6507401560
 C          6.1924720114       -0.1421754725        0.1301180830
 C          6.3765125552       -0.4745133570       -1.2033089512
 C          5.2872604647       -0.7238514292       -2.0255323734
 C          4.0029204248       -0.6436298563       -1.5116731039
 H          3.1257485976       -0.8209146963       -2.1129251752
 H          5.4330839612       -0.9802362710       -3.0625307013
 H          7.3748813519       -0.5380228917       -1.6063160581
 H          7.0411742812        0.0537767946        0.7653006226
 H          4.7174176943        0.1987021805        1.6789202356
 H          2.5448735792       -2.3342124223        1.1524521652
 H          1.1748083996       -3.4278759359        2.6559272770
 H         -1.1258170348       -4.0052912320        3.3302662837
 H         -3.0482656058       -3.1151088690        2.0728055499
 H         -3.8582888617       -1.4764706859        0.5407217064
 C         -3.4215322015       -2.3899838735       -1.3326684619
 C         -2.5139776413       -3.3953688890       -1.9684886212
 C         -3.6778656140       -3.8565156714       -1.1467412774
 H         -4.5242624202       -4.2974938531       -1.6507871660
 H         -3.4654591237       -4.2833679685       -0.1785169446
 H         -2.5544701046       -3.4960420193       -3.0419243640
 H         -1.5213934601       -3.5082734901       -1.5602625894
 H         -4.0905280829       -1.8585773758       -2.0008534689
