  62
        -98.93610545
 C         -2.3136052669       -1.0609649478        0.1513302540
 C         -3.5613911855       -0.9372912675        0.8143939729
 C         -4.5577957144       -0.0354543429        0.2121554235
 C         -4.2320871428        0.6590264462       -0.8934314220
 C         -5.0395626071        1.6169710076       -1.7442205753
 C         -6.3555652098        2.1970003236       -1.2324698786
 C         -6.2154653141        3.1563589946       -0.0511234135
 H         -7.2172835900        3.4276788349        0.2888567440
 H         -5.7243710322        4.0680805853       -0.4007256972
 C         -5.4136947574        2.6285266308        1.1360541056
 H         -5.3914551774        3.4119236031        1.8985500807
 H         -4.3804140308        2.4498648182        0.8306045206
 C         -5.9660777645        1.3621499253        1.7873944685
 H         -7.0109591046        1.5165075834        2.0632558770
 H         -5.3989886013        1.1911843752        2.7062989770
 C         -5.8665770449        0.0825491269        0.9390164017
 H         -6.6990057651        0.0025960250        0.2439032366
 H         -5.9201823089       -0.7749598450        1.6160175001
 H         -7.0518667947        1.3982705309       -0.9944743242
 H         -6.7907610448        2.7589305730       -2.0633992990
 H         -5.2370264083        1.0858783627       -2.6821760216
 H         -4.3588220671        2.4371734863       -1.9941476612
 O         -3.0057153106        0.5364254266       -1.4781824402
 C         -2.0201249753       -0.3095063920       -0.9865505613
 O         -0.9702366514       -0.2855384007       -1.6562093587
 O         -3.8393178355       -1.5653752856        1.8702621696
 C         -1.2863737719       -1.9899170708        0.7762939754
 C          0.0210198005       -1.2625061416        0.9522960865
 C          0.1792655849       -0.3889747001        2.0240819723
 C          1.3500725261        0.3282288697        2.1819128891
 C          2.3820390564        0.1986387354        1.2685937393
 C          2.2242370101       -0.6530078363        0.1840453312
 C          1.0578914527       -1.3937987830        0.0431293985
 H          0.9405164740       -2.0446457937       -0.8092478248
 N          3.2581852395       -0.7852057626       -0.7568408925
 S          4.0743670311        0.5852810047       -1.2752156042
 O          3.2539158042        1.7722471378       -1.2130764730
 O          4.6053751041        0.2351837822       -2.5750816316
 C          5.4281626777        0.7184645389       -0.1230414422
 C          5.6626684944        1.9121648273        0.5306901239
 C          6.7283708174        1.9960536823        1.4134576952
 C          7.5377062772        0.8905978646        1.6249660524
 C          7.2910330450       -0.3004375464        0.9584416072
 C          6.2281361096       -0.3901779215        0.0740760185
 H          6.0047993623       -1.2952571701       -0.4654057324
 H          7.9226481787       -1.1580651754        1.1252866166
 H          8.3655250097        0.9579401341        2.3130640610
 H          6.9215157387        2.9216611691        1.9316409318
 H          5.0038683079        2.7443923071        0.3386131165
 H          3.0119776548       -1.3707586463       -1.5420080151
 H          3.2913255489        0.7669600175        1.3763287786
 H          1.4611615851        0.9987093986        3.0206201285
 H         -0.6335876148       -0.2717261751        2.7275687753
 H         -1.6935632384       -2.2068986505        1.7768754166
 C         -1.1294365599       -3.3313378892        0.0756594409
 C         -2.3278213258       -4.0466892106       -0.4706267153
 C         -1.2834302066       -3.5143529622       -1.4032568603
 H         -0.6326225099       -4.2209544204       -1.8982358896
 H         -1.5171944295       -2.6478662291       -2.0017581217
 H         -2.4011556577       -5.1146968784       -0.3320926665
 H         -3.2762950183       -3.5317389587       -0.4221879594
 H         -0.3791389256       -3.9481025460        0.5615255217
