  62
        -98.93714324
 C         -2.5634611765       -1.2264221066       -0.3643902677
 C         -1.9754464112        0.0038556103       -0.7556509651
 C         -2.8833128846        1.1628441112       -0.8054984793
 C         -4.1827989649        1.0068125371       -0.4998007826
 C         -5.1965572087        2.1121584885       -0.4559293424
 C         -5.2831346154        2.7273674855        0.9479269655
 C         -3.9252516924        3.0887516994        1.5508192381
 H         -4.1131160899        3.5404783312        2.5273622639
 H         -3.3550216858        2.1732859226        1.7271335530
 C         -3.0860362835        4.0495808274        0.6970514609
 H         -2.6630715763        4.8174775223        1.3482137461
 H         -3.7252306147        4.5549175571       -0.0280467478
 C         -1.9135525971        3.3922616776       -0.0336939723
 H         -1.2711933346        4.1855560990       -0.4258326973
 H         -1.3154598204        2.8118586140        0.6747887597
 C         -2.2884735330        2.4823216343       -1.2101694778
 H         -2.9573400506        3.0153696351       -1.8889913197
 H         -1.3671171785        2.2438216266       -1.7495286428
 H         -5.9083256151        3.6205009832        0.8957159158
 H         -5.7706337181        2.0092493114        1.6113367496
 H         -6.1702282878        1.6970830297       -0.7215469947
 H         -4.9267886817        2.8757648738       -1.1827766364
 O         -4.7144469988       -0.1889384802       -0.1402034168
 C         -3.9210353832       -1.3183014998       -0.0378217904
 O         -4.5343942797       -2.3344592901        0.3452779092
 O         -0.7649769116        0.1524389468       -1.0644685555
 C         -1.7584543000       -2.5058673295       -0.1879073943
 C         -0.5728156653       -2.2186010274        0.6981924921
 C         -0.7430497389       -2.1802121707        2.0784462930
 C          0.3091229962       -1.8433641781        2.9103163225
 C          1.5451842257       -1.5189165733        2.3799374130
 C          1.7180502346       -1.5390215123        1.0027176098
 C          0.6706142264       -1.9114130368        0.1706204091
 H          0.8102483917       -1.9145767252       -0.8989833353
 N          2.9645111548       -1.1809294795        0.4554327905
 S          3.7036743942        0.1852971059        1.1252429130
 O          4.5254791922       -0.2479947737        2.2301267814
 O          2.7202057813        1.1964045126        1.4388068558
 C          4.7377031449        0.7205822094       -0.2239102219
 C          6.0617885411        0.3290643511       -0.2686539367
 C          6.8433802060        0.7347358245       -1.3391004400
 C          6.2903495068        1.5181804365       -2.3407692042
 C          4.9588073328        1.9026791057       -2.2820841450
 C          4.1713331167        1.5003633258       -1.2150660653
 H          3.1333256705        1.7817421879       -1.1262474974
 H          4.5307797362        2.5123388249       -3.0616400137
 H          6.9000408833        1.8335800070       -3.1726735433
 H          7.8790536961        0.4397437443       -1.3882421278
 H          6.4477670566       -0.2740949934        0.5364544083
 H          2.9136033832       -1.0990725397       -0.5513557305
 H          2.3696873516       -1.2257881315        3.0108159060
 H          0.1639877289       -1.8205015011        3.9802339379
 H         -1.7170662278       -2.4042610686        2.4925042547
 H         -2.4310474479       -3.1869745071        0.3567252549
 C         -1.3790491990       -3.2162822119       -1.4786683487
 C         -2.3846052406       -3.3572213511       -2.5818106243
 C         -1.1639982593       -2.5131518832       -2.7833443083
 H         -0.3886770384       -2.8863841650       -3.4368097727
 H         -1.2767324946       -1.4414451709       -2.8089407703
 H         -2.4544727150       -4.3007656639       -3.1014746592
 H         -3.3340752364       -2.8585624033       -2.4490175770
 H         -0.7498865789       -4.0800342284       -1.2849980105
