  62
        -98.94042019
 C          2.5652174459        0.0249482321        0.4487892160
 C          2.1478566791       -0.5751071732       -0.7612479905
 C          1.7677504104       -1.9984671525       -0.6955693402
 C          1.8048529492       -2.6377719310        0.4884467976
 C          1.5107310186       -4.0760871054        0.8640186580
 C          0.8684180440       -5.0288911499       -0.1392329487
 C         -0.5974304171       -4.7261746086       -0.4517160056
 H         -1.1976720861       -4.9869458123        0.4235838380
 H         -0.9136903965       -5.3677106687       -1.2770141697
 C         -0.9138534897       -3.2746276128       -0.8039187631
 H         -0.6718198694       -2.6186821211        0.0358278567
 H         -1.9939096779       -3.1900557764       -0.9579009812
 C         -0.2334886787       -2.7346671382       -2.0596724328
 H         -0.6399524865       -1.7347646403       -2.2353292752
 H         -0.4885384638       -3.3616330585       -2.9172961951
 C          1.2961017406       -2.6088954626       -1.9839697726
 H          1.6149467750       -1.9266594726       -2.7780118963
 H          1.7803106661       -3.5669829048       -2.1601174235
 H          0.9107020894       -6.0266396032        0.3059891044
 H          1.4577943073       -5.0651784983       -1.0506131583
 H          2.4717014872       -4.4979885138        1.1789706078
 H          0.8868284207       -4.0272484325        1.7624366499
 O          2.2077689292       -2.0102989871        1.6338962773
 C          2.5735592529       -0.6777980449        1.6500590427
 O          2.8889915196       -0.2426554310        2.7779419472
 H          0.3486088230        1.0581624123        0.9573815344
 C          0.4896290786        1.9434575978        0.3548690727
 C          1.7743163112        2.3335303864        0.0012484097
 C          1.9306157234        3.4848591210       -0.7606093600
 C          0.8232370559        4.2039362192       -1.1761455842
 C         -0.4557140135        3.7838469212       -0.8599800898
 C         -0.6220746299        2.6403807408       -0.0874096583
 N         -1.9070511435        2.1779875341        0.2688946990
 S         -2.1922935505        0.5244146513        0.0304215768
 O         -1.5545507451       -0.2280158822        1.0810417857
 O         -1.8588112465        0.1659467962       -1.3289575141
 C         -3.9611839337        0.4787400080        0.2543885499
 C         -4.7887261038        0.4338847066       -0.8512885199
 C         -6.1619081717        0.4324299692       -0.6615005178
 C         -6.6808998826        0.4789852614        0.6234967123
 C         -5.8373671917        0.5225551249        1.7239003216
 C         -4.4637518943        0.5229966233        1.5408400178
 H         -3.7683525566        0.5473640326        2.3637689173
 H         -6.2440150221        0.5558705146        2.7217585483
 H         -7.7495552069        0.4787546606        0.7689732107
 H         -6.8196641666        0.3950324445       -1.5148270346
 H         -4.3386983704        0.3907809037       -1.8301683991
 H         -2.6340743201        2.7091137695       -0.1949327389
 H         -1.3182763834        4.3325907397       -1.2075029766
 H          0.9579950732        5.0948359877       -1.7707619444
 H          2.9193077102        3.8135977864       -1.0368207839
 C          2.9360769531        1.4956635012        0.4812517986
 H          3.1184658364        1.7389682215        1.5392645422
 C          4.2104704686        1.7372766813       -0.3023496323
 C          5.1716432828        2.8067859144        0.1194188548
 C          5.5208802990        1.3638081567        0.3208269834
 H          6.2818119363        0.9215782223       -0.3043388611
 H          5.4927011882        0.9633764482        1.3240901707
 H          4.9195616468        3.3907191415        0.9917696672
 H          5.6989832613        3.3565747170       -0.6455905724
 H          4.0862373215        1.5443220199       -1.3617988466
 O          2.1084210859        0.0449258533       -1.8573196220
