  62
        -98.94028406
 C         -2.0321749498       -0.6896560694        0.9672346504
 C         -2.8690307099       -1.1769146896       -0.0674604894
 C         -4.2551916097       -0.6849824891       -0.0469635197
 C         -4.6590067095        0.1647508113        0.9131845600
 C         -6.0407602294        0.7400008318        1.0670403197
 C         -6.2988525290        1.9823392216        0.2033645193
 C         -6.4515983190        1.7138619611       -1.2943923207
 H         -7.1965667092        0.9324094812       -1.4478952304
 H         -6.8419162387        2.6285610810       -1.7452016310
 C         -5.1462067591        1.3310826904       -2.0058406805
 H         -5.0581096688        1.8985631801       -2.9351009807
 H         -4.2947522290        1.6099589304       -1.3804031005
 C         -5.0329356595       -0.1501533997       -2.3663763599
 H         -5.8017516495       -0.4088237698       -3.0978538699
 H         -4.0574556895       -0.3159066002       -2.8302313798
 C         -5.1566188298       -1.1023627193       -1.1697398596
 H         -4.8469505701       -2.0993656995       -1.4923519092
 H         -6.1912101499       -1.1490542688       -0.8309590796
 H         -7.2212362988        2.4436656220        0.5639117791
 H         -5.4864126187        2.6948719014        0.3647081190
 H         -6.7843644196       -0.0241728380        0.8389314900
 H         -6.1441041793        1.0235255322        2.1167462196
 O         -3.8280503994        0.5985274314        1.8988104599
 C         -2.5024145896        0.2032352911        1.9342434901
 O         -1.8472586895        0.6979266512        2.8749397199
 O         -2.5034086901       -1.9761263800       -0.9654913191
 C         -0.5644187699       -1.0630480798        1.0962769706
 C          0.2839195604       -0.1183268604        0.2851040003
 C          0.0344624005        0.0905326992       -1.0679534398
 C          0.8212832008        0.9596705387       -1.8011338501
 C          1.8754100510        1.6302467086       -1.2050480602
 C          2.1361777109        1.4235313990        0.1424228398
 C          1.3417080706        0.5541198995        0.8785444701
 H          1.5393669305        0.4105696198        1.9323378002
 N          3.2367134611        2.0745058889        0.7377012996
 S          4.7276018010        1.7137857582        0.0528230198
 O          5.7045859510        1.9963969783        1.0794288098
 O          4.8714679212        2.4414131477       -1.1818521404
 C          4.6318436305       -0.0374871619       -0.2690511395
 C          4.7935336402       -0.9048516915        0.7933229608
 C          4.6175799898       -2.2627805616        0.5831411013
 C          4.2698296797       -2.7264684919       -0.6765201286
 C          4.1154855100       -1.8431998223       -1.7332692489
 C          4.2972568204       -0.4843103822       -1.5313488294
 H          4.1887614506        0.2337000475       -2.3272446796
 H          3.8464604899       -2.2073566825       -2.7116812288
 H          4.1152452694       -3.7818458719       -0.8336133782
 H          4.7415690395       -2.9537289013        1.4016210915
 H          5.0636597602       -0.5052941313        1.7580360007
 H          3.2786394610        1.9500905793        1.7394327797
 H          2.5043551612        2.3056128482       -1.7624494205
 H          0.6134444309        1.1161112084       -2.8488058501
 H         -0.7790064996       -0.4419261907       -1.5364958296
 H         -0.3213270299       -0.8976947195        2.1576273006
 C         -0.2817091903       -2.5280911400        0.7875714512
 C          0.5863845296       -2.9848711007       -0.3431998986
 C          1.0818827295       -3.0888592803        1.0653696814
 H          1.1579544692       -4.0634198502        1.5226524518
 H          1.8481215497       -2.3927813205        1.3732346612
 H          0.2933270993       -3.8853086508       -0.8605334983
 H          1.0322201998       -2.2395813311       -0.9828367689
 H         -1.1264716505       -3.1636669897        1.0295210014
