  62
        -98.93539919
 C          2.0204196473        0.4253826385       -0.0391557310
 C          3.1270868944        1.0905147727        0.5462260508
 C          4.3536647271        0.3012393412        0.7527614307
 C          4.3604855276       -1.0023686501        0.4192297492
 C          5.4345248052       -2.0616418075        0.5536209624
 C          6.8812149382       -1.6743042651        0.8486768825
 C          7.5849728948       -0.9221976287       -0.2806381471
 H          8.5680026049       -0.6091417007        0.0778233369
 H          7.7394251993       -1.6126391591       -1.1137816447
 C          6.8431118763        0.2962756657       -0.8244798606
 H          5.8988365756       -0.0200699480       -1.2726590901
 H          7.4502195879        0.7269942825       -1.6254374971
 C          6.5654832990        1.4011270520        0.1930529868
 H          6.1810863755        2.2652745263       -0.3557689592
 H          7.4986517948        1.7002465867        0.6741881543
 C          5.5397624507        1.0525475364        1.2854239037
 H          6.0038012068        0.5075610500        2.1039525680
 H          5.1504352204        1.9894048749        1.6945726272
 H          7.4258145197       -2.6083605744        1.0118366977
 H          6.9386927584       -1.1117306383        1.7758446718
 H          5.4011407384       -2.6389446786       -0.3760016294
 H          5.0876282976       -2.7352793046        1.3451740529
 O          3.2556875973       -1.6132467356       -0.0971244835
 C          2.0707867889       -0.9336107372       -0.3489276267
 O          1.1809424620       -1.6535112843       -0.8371557887
 O          3.0922112288        2.3015591956        0.8916608800
 C          0.7556249814        1.2382972990       -0.2564696751
 C         -0.4323046642        0.5082019662        0.3141620388
 C         -0.6229143749        0.4965335087        1.6927311072
 C         -1.6813406104       -0.1923187878        2.2546878683
 C         -2.5704375647       -0.8868483502        1.4537363316
 C         -2.3884653078       -0.8811145328        0.0770904714
 C         -1.3348684538       -0.1731850655       -0.4868538002
 H         -1.1919932011       -0.1936864136       -1.5558343950
 N         -3.2802793144       -1.5905309823       -0.7407960305
 S         -4.9158336805       -1.5142575181       -0.4212115400
 O         -5.2486439891       -2.3994118349        0.6675688682
 O         -5.5620405490       -1.7972142568       -1.6837045472
 C         -5.2150649462        0.1765427027        0.0652045315
 C         -4.9293727018        1.1744905530       -0.8456822824
 C         -5.1269632374        2.4950435831       -0.4774217351
 C         -5.6035187442        2.7943818538        0.7899954524
 C         -5.8899235000        1.7813313004        1.6913643434
 C         -5.6927827089        0.4583604153        1.3285202645
 H         -5.9012130541       -0.3597053978        1.9986358493
 H         -6.2623404015        2.0166817143        2.6753261006
 H         -5.7535189264        3.8237494702        1.0750130192
 H         -4.9071944678        3.2851130102       -1.1774318525
 H         -4.5672835474        0.9070689816       -1.8253671368
 H         -3.0756463364       -1.5383819861       -1.7267805575
 H         -3.3872305677       -1.4499855842        1.8752405166
 H         -1.8135256988       -0.1953361211        3.3259851870
 H          0.0791763507        1.0268127218        2.3212892683
 H          0.9158742241        2.1484151778        0.3438990676
 C          0.5388461938        1.7017403921       -1.6894284386
 C          1.7028266367        2.1045257620       -2.5432423489
 C          0.9122241900        0.8787603941       -2.8844888356
 H          0.2656716433        0.9132939707       -3.7498030276
 H          1.3581822069       -0.0886845372       -2.7147839951
 H          1.6051426132        2.9750746721       -3.1741430817
 H          2.6916252001        1.9738498109       -2.1282043565
 H         -0.3580315641        2.3071875927       -1.7810275310
