  62
        -98.94891859
 C         -1.6698084934       -1.2763365301       -0.2579254571
 C         -0.6119712164       -1.7272318524       -1.0808898914
 C          0.3712327879       -2.6092880571       -0.4420133484
 C          0.2351514191       -2.9084873157        0.8627426154
 C          1.1833338352       -3.7715834702        1.6441181630
 C          2.2850405072       -2.9388356555        2.3128679731
 C          2.9729419815       -1.9486056111        1.3728074192
 H          2.2519320006       -1.1777733787        1.0891038055
 H          3.7543190581       -1.4497769388        1.9523378352
 C          3.5898056299       -2.5791358581        0.1164546696
 H          3.7233958752       -3.6507110591        0.2710222745
 H          4.5809370135       -2.1474895497       -0.0372537204
 C          2.7976150943       -2.3463936388       -1.1710774146
 H          2.5671630182       -1.2827150856       -1.2699163018
 H          3.4320720043       -2.6271244340       -2.0157371201
 C          1.4884179347       -3.1338676162       -1.2993771214
 H          1.1422735873       -3.0373864195       -2.3325618107
 H          1.6695347249       -4.1908107125       -1.0936946416
 H          3.0254472644       -3.6216691881        2.7352255103
 H          1.8399837148       -2.3672572929        3.1310481552
 H          0.6149277677       -4.2909051402        2.4179262572
 H          1.6266887868       -4.5085275778        0.9766400417
 O         -0.7789690160       -2.4348231069        1.6301678663
 C         -1.7399322343       -1.5876589910        1.0999264782
 O         -2.5971912412       -1.2051357346        1.9202167149
 H         -0.4999920150        1.0072942113       -0.3576371679
 C         -1.3634769108        1.5474127498        0.0032622919
 C         -2.6274298832        0.9970549756       -0.1726671945
 C         -3.7299871633        1.7048376827        0.2861389632
 C         -3.5603147510        2.9150787580        0.9374100607
 C         -2.2975933696        3.4328884222        1.1570491700
 C         -1.1880997488        2.7378237464        0.6872695586
 N          0.1106756678        3.2361661225        0.8733517374
 S          1.4052998162        2.2032028983        1.1087895753
 O          0.9957282586        0.9247999649        1.6419201600
 O          2.3357767868        2.9557381645        1.9258924010
 C          2.1383165771        1.9881930074       -0.5021912865
 C          3.3379897782        1.3040800246       -0.5458321087
 C          3.9640760216        1.1148677184       -1.7672281246
 C          3.3813685556        1.6111296768       -2.9230578042
 C          2.1798765998        2.2985602264       -2.8628826364
 C          1.5497620543        2.4941517304       -1.6428530671
 H          0.6143505338        3.0245551563       -1.5736320554
 H          1.7263944043        2.6828282153       -3.7623926268
 H          3.8654448145        1.4595697285       -3.8747694515
 H          4.8980396764        0.5782689979       -1.8125129306
 H          3.7545354267        0.9324769580        0.3768440163
 H          0.1786003732        4.0542156317        1.4602373090
 H         -2.1659212039        4.3623352256        1.6897663620
 H         -4.4242801565        3.4539735122        1.2958074358
 H         -4.7206326887        1.3042369161        0.1475108419
 C         -2.7133107679       -0.3468640508       -0.8525179832
 H         -2.4218276130       -0.2189317384       -1.9060316223
 C         -4.0910223662       -0.9710185553       -0.7983003381
 C         -5.1261822492       -0.6057812047       -1.8190598853
 C         -4.4814976222       -1.9576894920       -1.8563701001
 H         -5.0651787511       -2.8186920933       -1.5672789010
 H         -3.7601896839       -2.1610460219       -2.6343047535
 H         -4.8480784653        0.1081010838       -2.5793878729
 H         -6.1574562231       -0.5402268363       -1.5066033171
 H         -4.4167098475       -1.1705252959        0.2163970483
 O         -0.4987486231       -1.4093655947       -2.2966572611
