  62
        -98.94118635
 C         -1.8424711003        0.9044751431       -0.7183962332
 C         -2.1085335020       -0.4855923502       -0.8468408651
 C         -3.5021585153       -0.9039915339       -0.6691147606
 C         -4.4476147938        0.0218678651       -0.4280972564
 C         -5.9206831322       -0.2351294934       -0.2611009085
 C         -6.3246927481       -0.6524133168        1.1594508421
 C         -5.9143955712       -2.0696598101        1.5610969992
 H         -6.4441993602       -2.3063348440        2.4859933343
 H         -6.2552410726       -2.7740478293        0.8016545132
 C         -4.4079163246       -2.2497976638        1.7952121637
 H         -3.9393264386       -1.2712494553        1.9241653564
 H         -4.2477337656       -2.8046530055        2.7224298678
 C         -3.6778274373       -3.0046714917        0.6841322172
 H         -4.0479710070       -4.0311088910        0.6347202381
 H         -2.6151452566       -3.0404321174        0.9370302850
 C         -3.8123636144       -2.3698945438       -0.7062776100
 H         -4.8146706474       -2.5364100739       -1.1005358316
 H         -3.0889206623       -2.8458480675       -1.3724342923
 H         -7.4128624987       -0.5797879036        1.2235450205
 H         -5.9018499715        0.0641361303        1.8674817189
 H         -6.4285645035        0.7011530561       -0.5024680227
 H         -6.2421000377       -0.9978148218       -0.9709997808
 O         -4.1588601145        1.3441760229       -0.3261596141
 C         -2.8580601949        1.8182486309       -0.4358383785
 O         -2.7710284329        3.0510035400       -0.2656359205
 O         -1.2174993496       -1.3363463647       -1.1101941591
 C         -0.3970030350        1.3276329571       -0.9023304284
 C          0.3384821359        1.4758491028        0.4084137725
 C         -0.1215339133        2.3134966694        1.4184760207
 C          0.6005494740        2.4547320111        2.5894334299
 C          1.8026553073        1.7910774135        2.7637476595
 C          2.2741421151        0.9572022814        1.7573457181
 C          1.5297927199        0.7913530062        0.5981436461
 H          1.8900079244        0.1239327287       -0.1694113917
 N          3.4889195378        0.2708019951        1.8930387598
 S          4.5141432296        0.1392845360        0.5737438086
 O          5.8242045775       -0.0662240574        1.1532805498
 O          4.3798651015        1.2684520589       -0.3158509807
 C          4.0049797974       -1.3577021641       -0.2427486104
 C          3.6819545119       -1.3297812091       -1.5847216308
 C          3.3037212560       -2.5078154388       -2.2088012026
 C          3.2583486228       -3.6880055519       -1.4832781089
 C          3.5904885622       -3.7005099435       -0.1369420483
 C          3.9689776309       -2.5258510768        0.4924220848
 H          4.2382270659       -2.4964419448        1.5350514853
 H          3.5533586305       -4.6213341848        0.4225815323
 H          2.9612108076       -4.6028171325       -1.9713108090
 H          3.0430160322       -2.4991211835       -3.2551178882
 H          3.7276726237       -0.3892681085       -2.1118168923
 H          3.9962348898        0.4682318625        2.7433452912
 H          2.3726550846        1.9181191689        3.6717692103
 H          0.2312125752        3.1026935714        3.3702424537
 H         -1.0449439276        2.8533113954        1.2747970396
 H          0.0751030338        0.4975840757       -1.4459956948
 C         -0.2210270250        2.5937718347       -1.7213085078
 C          1.1422704142        2.9291138181       -2.2459360335
 C          0.0628522796        2.4897237411       -3.1881877506
 H         -0.3728533494        3.2226477355       -3.8506412308
 H          0.1299245287        1.4998600992       -3.6155441448
 H          1.4443748996        3.9653911365       -2.2591431805
 H          1.9511239032        2.2478721096       -2.0245209874
 H         -0.8450448342        3.4117853636       -1.3859282033
