  62
        -98.93707097
 C          1.5584653202        1.4633286523       -0.6889966855
 C          1.4341972702        0.0507809407       -0.6497539069
 C          2.6954529674       -0.7024381571       -0.5328313107
 C          3.8661748529       -0.0444826593       -0.4929254442
 C          5.2105849511       -0.6879055068       -0.3179918866
 C          5.5907206340       -0.7839169556        1.1663621047
 C          4.4891968840       -1.3685269655        2.0509404142
 H          4.8813850606       -1.4135626637        3.0694325750
 H          3.6404876909       -0.6807353304        2.0646005923
 C          4.0056733843       -2.7623446596        1.6266166155
 H          4.7427070735       -3.2242493456        0.9686465042
 H          3.9276213227       -3.3903856299        2.5166708787
 C          2.6357738296       -2.7801513572        0.9452593498
 H          2.3038017731       -3.8197123809        0.8839012904
 H          1.9127904781       -2.2384222032        1.5601339711
 C          2.5900637323       -2.2006389571       -0.4737336939
 H          3.3653274892       -2.6649358577       -1.0862296685
 H          1.6138225158       -2.4466193523       -0.9011805704
 H          5.8239970475        0.2198405346        1.5294797566
 H          6.4920760993       -1.3935625277        1.2532442618
 H          5.1935795120       -1.6803370585       -0.7641828769
 H          5.9539664496       -0.0793042010       -0.8356532774
 O          3.9501156423        1.3090724966       -0.5592173991
 C          2.8102803691        2.0874494476       -0.6430684826
 O          3.0399813417        3.3148181885       -0.6747664355
 H         -1.5905143907        0.5089681698       -0.2163818563
 C         -1.4722862757        1.2444695400        0.5573473315
 C         -0.5351824572        2.2581654992        0.4252411711
 C         -0.3851193674        3.1563322800        1.4810367334
 C         -1.1485823535        3.0444099889        2.6274536090
 C         -2.0895098266        2.0372606385        2.7470903713
 C         -2.2448459934        1.1309027629        1.7057585042
 N         -3.1573495131        0.0742882001        1.8080221772
 S         -3.9390921100       -0.5202929764        0.4566976726
 O         -4.2613954987        0.5379850997       -0.4728377797
 O         -5.0731515180       -1.2434682034        0.9973771067
 C         -2.8130115880       -1.6881856171       -0.2712239016
 C         -2.0749352663       -2.5074439246        0.5576310169
 C         -1.2224307186       -3.4381394572       -0.0108714912
 C         -1.1275691616       -3.5377480643       -1.3897224071
 C         -1.8796811852       -2.7110811121       -2.2079779029
 C         -2.7330470105       -1.7758665493       -1.6457299487
 H         -3.3224186492       -1.1004889428       -2.2464677881
 H         -1.7960054325       -2.7815029046       -3.2810807100
 H         -0.4559456039       -4.2582718784       -1.8305737505
 H         -0.6254966922       -4.0749376095        0.6225218926
 H         -2.1646037712       -2.3958855578        1.6256173993
 H         -3.7464036331        0.0797117993        2.6268959680
 H         -2.6911951729        1.9474748845        3.6388899275
 H         -1.0150967968        3.7508024905        3.4329422102
 H          0.3500824146        3.9447710923        1.3974946519
 C          0.3678621363        2.4165522037       -0.7729060987
 H          0.8255048596        3.4124887428       -0.6746544969
 C         -0.2804790920        2.4218231223       -2.1554716138
 C         -0.9479281679        1.2539853178       -2.8164767193
 C         -1.7601386750        2.4418028462       -2.4009175869
 H         -2.1355299156        3.0994588650       -3.1716834185
 H         -2.4307966300        2.3275875232       -1.5626712467
 H         -0.7583084356        1.1037151073       -3.8704266519
 H         -1.0391840034        0.3350791648       -2.2617788452
 H          0.3088857566        3.0395416935       -2.8295719338
 O          0.3501700732       -0.5792691007       -0.7069500633
