  62
        -98.94016735
 C         -2.6302451300       -1.3183249308       -0.0189480994
 C         -2.5306321301       -0.1801992111       -0.8543886997
 C         -3.7843702401        0.5516434587       -1.0874230801
 C         -4.9256024301        0.0984304088       -0.5369001800
 C         -6.2619334002        0.7713052387       -0.6543688903
 C         -6.4941766904        1.7499665490        0.5051167193
 C         -5.3268901705        2.7068117292        0.7479729191
 H         -5.6147244706        3.3706731994        1.5660899989
 H         -4.4601283704        2.1354911394        1.0887718194
 C         -4.9289042204        3.5454560388       -0.4745834411
 H         -4.7765330206        4.5786636790       -0.1554818115
 H         -5.7407708704        3.5476222285       -1.2027866012
 C         -3.6359835703        3.0970109387       -1.1589627809
 H         -3.3342841904        3.8791798985       -1.8609108111
 H         -2.8395898104        3.0029024591       -0.4155659708
 C         -3.7170155902        1.7828863785       -1.9463330305
 H         -4.5611845801        1.8195756982       -2.6379740105
 H         -2.7965213601        1.6900865484       -2.5302602504
 H         -7.3993523904        2.3233138689        0.2973371491
 H         -6.6590279904        1.1728553793        1.4179016295
 H         -7.0365915401        0.0030995586       -0.6301186501
 H         -6.3152772802        1.2981506384       -1.6049391905
 O         -4.9843531801       -1.0138314909        0.2393087903
 C         -3.8406147900       -1.7379263507        0.5323531307
 O         -4.0277780900       -2.7181904505        1.2811017010
 O         -1.4532711101        0.2039461189       -1.3815818898
 C         -1.3880810100       -2.1286197906        0.3053623610
 C         -0.3476584401       -1.2359176803        0.9376927108
 C         -0.7163308603       -0.4471976800        2.0247451005
 C          0.1971932896        0.3937120603        2.6290559203
 C          1.5021782896        0.4627355103        2.1717594704
 C          1.8825141598       -0.3218683200        1.0927011806
 C          0.9592120899       -1.1668533103        0.4852368808
 H          1.2684289500       -1.7665439106       -0.3566111089
 N          3.2136186398       -0.3016685201        0.6339916207
 S          4.0329388397        1.1690289100        0.5146531703
 O          4.3255825196        1.6431818004        1.8439529202
 O          3.3143505097        2.0871678396       -0.3413158600
 C          5.5356657398        0.6233149999       -0.2722285694
 C          6.4958845898        0.0035277802        0.5049686409
 C          7.6570110699       -0.4494125599       -0.1003354189
 C          7.8377127300       -0.2760960703       -1.4647219089
 C          6.8656261000        0.3487943793       -2.2311624892
 C          5.7007354799        0.8027028494       -1.6321706094
 H          4.9213725599        1.2999972392       -2.1874071497
 H          7.0101010001        0.4842808490       -3.2909935892
 H          8.7429488400       -0.6280926904       -1.9338038187
 H          8.4161704399       -0.9343894696        0.4918088513
 H          6.3151704997       -0.1011839595        1.5618615509
 H          3.3153123999       -0.8179764203       -0.2300148191
 H          2.2198222395        1.1224991605        2.6308790802
 H         -0.1064856305        1.0050519606        3.4661494701
 H         -1.7360709803       -0.4973118299        2.3835857304
 H         -1.6969307200       -2.8726456904        1.0540304912
 C         -0.9059551698       -2.8562658609       -0.9322905588
 C         -0.1400061597       -4.1379572608       -0.8040978983
 C         -1.5533138197       -4.1557614411       -1.3017697184
 H         -1.7319204596       -4.3640837215       -2.3460036483
 H         -2.3263444997       -4.5270759110       -0.6447574583
 H          0.6515011504       -4.3401831610       -1.5100106582
 H          0.0505458402       -4.5079466005        0.1918796919
 H         -0.6485710498       -2.1795672612       -1.7394162990
