  62
        -98.93653260
 C          1.6183439502        0.7994164597       -0.2948454591
 C          2.9305444003        1.3354046995       -0.3682282390
 C          3.9718545202        0.6140874493        0.3691403810
 C          3.6426992999       -0.4727278907        1.0899866509
 C          4.5838910897       -1.3049880909        1.9180129110
 C          5.3518329396       -2.3642136210        1.1153787709
 C          6.4555363497       -1.8201300712        0.2073887810
 H          7.1120565698       -1.1686460213        0.7849926511
 H          7.0513774696       -2.6745071513       -0.1199384390
 C          5.9447686899       -1.0718056210       -1.0318496289
 H          6.4957223499       -1.4077895210       -1.9132194489
 H          4.8935004099       -1.3174838008       -1.1985157190
 C          6.0903629702        0.4481875690       -0.9591471488
 H          7.1492055603        0.7146423788       -0.9262207487
 H          5.6635679504        0.8776720091       -1.8691645588
 C          5.3870390103        1.0916570090        0.2428756212
 H          5.3604182605        2.1728850090        0.0866903812
 H          5.9412678802        0.8843713489        1.1580975812
 H          5.8078210894       -3.0493386312        1.8337364109
 H          4.6376972395       -2.9354653909        0.5180858708
 H          5.2908759798       -0.6546941011        2.4340700210
 H          3.9718727696       -1.8154116909        2.6645673809
 O          2.3699899898       -0.9376432005        1.1637796608
 C          1.3273490800       -0.3345297703        0.4662630208
 O          0.2343493699       -0.9039567601        0.6262653107
 O          3.2177329806        2.3759579095       -1.0199169889
 C          0.5323758804        1.5395974700       -1.0680188291
 C         -0.5604737096        1.9776243201       -0.1281270092
 C         -0.3994841394        3.2111956001        0.5039924209
 C         -1.3224700294        3.6730826602        1.4212668409
 C         -2.4487867395        2.9249604203        1.7154567708
 C         -2.6204210497        1.6941562704        1.0970016407
 C         -1.6759266597        1.2207198903        0.1953191507
 H         -1.8199647699        0.2411664604       -0.2212465294
 N         -3.7425873499        0.8996604306        1.3747031905
 S         -4.4994128199        0.0948414808        0.1187480504
 O         -4.3762139297        0.8259066609       -1.1215014495
 O         -5.8521952200       -0.1207458090        0.5909281903
 C         -3.6825935802       -1.4801140093        0.0012817804
 C         -3.3975916304       -2.1663497194        1.1643340804
 C         -2.8006502706       -3.4125983595        1.0749082403
 C         -2.5069823006       -3.9514721695       -0.1682816397
 C         -2.8039359804       -3.2512989294       -1.3264135897
 C         -3.3985275202       -2.0022082893       -1.2441858596
 H         -3.6308597600       -1.4179893892       -2.1204009696
 H         -2.5687381804       -3.6678879194       -2.2927656297
 H         -2.0388880808       -4.9211229896       -0.2344596897
 H         -2.5614213408       -3.9579731297        1.9736783603
 H         -3.6358041604       -1.7155752495        2.1133269704
 H         -4.4085743198        1.3079451107        2.0140642805
 H         -3.1829081395        3.2855234004        2.4202122707
 H         -1.1724591692        4.6282376801        1.9016095710
 H          0.4744709507        3.8047220999        0.2732729210
 H          1.0379109706        2.4611571599       -1.3971973590
 C          0.1664148904        0.8115342101       -2.3566351592
 C         -0.4890760699       -0.5334092997       -2.4389765393
 C         -1.2198053196        0.6865557504       -2.9143792193
 H         -1.3431621295        0.8175057105       -3.9799352893
 H         -2.0551944596        1.0510884205       -2.3361186993
 H         -0.1150746299       -1.2262082298       -3.1799757394
 H         -0.7891535000       -1.0127733097       -1.5216397894
 H          0.9488953305        0.9748051300       -3.0945901991
