  62
        -98.94329825
 C          1.3395693494        0.9776859470       -0.0033909270
 C          1.8213436338       -0.1339240189        0.7290231101
 C          2.7948309762       -0.9875149846        0.0346114553
 C          3.1427594982       -0.6922594588       -1.2313267454
 C          4.1600589701       -1.4462022867       -2.0370763560
 C          5.5621500098       -0.8456273926       -1.8639401614
 C          5.9609232478       -0.6175658096       -0.4058670805
 H          6.9785318066       -0.2210067288       -0.4059186525
 H          5.3162077898        0.1527906950        0.0233278513
 C          5.9020754618       -1.8749447590        0.4728504641
 H          5.8941977303       -2.7662150187       -0.1557434585
 H          6.8065694129       -1.9177018171        1.0832862025
 C          4.7130962809       -1.9214245319        1.4341968873
 H          4.8861083992       -2.7302740872        2.1490004138
 H          4.6651709335       -0.9883175465        2.0009742954
 C          3.3427102147       -2.1656569307        0.7898598360
 H          2.6285000699       -2.3619223022        1.5948620444
 H          3.3900665916       -3.0481310027        0.1484041412
 H          6.2837109368       -1.5113941032       -2.3411204619
 H          5.5931617760        0.1157322328       -2.3820379992
 H          4.1605896124       -2.4899812287       -1.7285174000
 H          3.8773524872       -1.3883779008       -3.0897229789
 O          2.6319165267        0.3642461916       -1.9147910303
 C          1.7212239130        1.2288845716       -1.3210317501
 O          1.3318340725        2.1520693316       -2.0605263750
 O          1.4498546712       -0.4012106314        1.9019283748
 C          0.3385320116        1.9025983654        0.6583387165
 C         -0.9881842576        1.8914810539       -0.0609664059
 C         -1.8359119958        2.9930490905       -0.0831706985
 C         -3.0764646702        2.9195557796       -0.6935879332
 C         -3.5043125140        1.7479096075       -1.2923226718
 C         -2.6629825849        0.6455708105       -1.2809862125
 C         -1.4235570876        0.7196226902       -0.6650418808
 H         -0.7817617190       -0.1532140725       -0.6513163889
 N         -3.1148310607       -0.5746640430       -1.8480428142
 S         -4.1244465903       -1.4268619772       -0.8109419584
 O         -4.2919517138       -2.7364640508       -1.3989740235
 O         -5.3228708229       -0.6547324655       -0.6089197851
 C         -3.1906232951       -1.5351864526        0.7038651216
 C         -3.2648550542       -0.4971793899        1.6109092457
 C         -2.4318032643       -0.5167596603        2.7178955927
 C         -1.5401115713       -1.5629456006        2.8956391801
 C         -1.4828429131       -2.6007811994        1.9785719073
 C         -2.3085513356       -2.5848518757        0.8664183181
 H         -2.2890552940       -3.3687258311        0.1253562050
 H         -0.7850414293       -3.4106083189        2.1197529937
 H         -0.8750054542       -1.5641628816        3.7442004074
 H         -2.4710257253        0.2907081916        3.4312598537
 H         -3.9665681070        0.3020092238        1.4345641437
 H         -2.3529665553       -1.1826072890       -2.1169384977
 H         -4.4749396404        1.6639229040       -1.7527397086
 H         -3.7204459536        3.7856043878       -0.7002087712
 H         -1.5241336977        3.9132143492        0.3835784301
 H          0.1721192133        1.4763182060        1.6602277367
 C          0.9193404383        3.2941867735        0.8122700263
 C          0.5909230940        4.1301833656        2.0122131819
 C          1.9555984899        3.5289393576        1.8693173719
 H          2.7882614200        4.1773892082        1.6414760974
 H          2.2147875876        2.6924016205        2.5019231555
 H          0.4876457405        5.1972310105        1.8839561097
 H         -0.0699945536        3.7070884728        2.7533926034
 H          1.0551404654        3.7940795759       -0.1401994508
