  62
        -98.93702312
 C         -1.3992456810       -1.0371529593       -0.4755096023
 C         -2.7355974924       -1.4648510718       -0.2983559542
 C         -3.7643149455       -0.4217214621       -0.4095124990
 C         -3.4004456750        0.8453357733       -0.6779422228
 C         -4.3196221032        2.0206052349       -0.8828610598
 C         -5.1373303564        2.4688002533        0.3437994451
 C         -6.5424965009        1.8596334148        0.4238373713
 H         -7.2387306303        2.6266050955        0.7694392749
 H         -6.8612086251        1.5779353596       -0.5805446065
 C         -6.6976089973        0.6603525099        1.3639253822
 H         -6.7453930306        1.0191410580        2.3946975631
 H         -7.6527319102        0.1806331203        1.1391943125
 C         -5.5884761147       -0.3898058974        1.2966459641
 H         -5.9163125880       -1.2678307045        1.8569229856
 H         -4.6969120386       -0.0149949884        1.8051470276
 C         -5.1864483517       -0.8125054898       -0.1299606993
 H         -5.2362127520       -1.8991964976       -0.2241969125
 H         -5.8583239102       -0.3730184881       -0.8657352681
 H         -5.2408565941        3.5528572957        0.2755596991
 H         -4.5762869813        2.2545711919        1.2529892260
 H         -4.9993973953        1.7939180464       -1.7073192302
 H         -3.6734053865        2.8417502098       -1.1990564323
 O         -2.1008482867        1.2142964210       -0.8421890558
 C         -1.0681401109        0.2945991847       -0.7271634145
 O          0.0680108569        0.7780270971       -0.8737649623
 O         -3.0554870247       -2.6612575389       -0.0621797595
 C         -0.2763941470       -2.0530968965       -0.3622604519
 C          0.6318222910       -1.6557115835        0.7739265899
 C          0.1019686962       -1.6134697729        2.0621273904
 C          0.8820043701       -1.2314160518        3.1352757404
 C          2.2056440309       -0.8726216696        2.9455399271
 C          2.7438336192       -0.9132555774        1.6654619139
 C          1.9601566706       -1.3092976029        0.5891847515
 H          2.4070629273       -1.3382298885       -0.3895335948
 N          4.0874437278       -0.5772421151        1.4504156231
 S          4.5843487726        0.1821492163        0.0513137301
 O          4.5924414338       -0.7501504975       -1.0484310354
 O          5.8751284518        0.7400148887        0.4017624611
 C          3.4399696557        1.5122892565       -0.2647460295
 C          2.9892513070        1.7197369885       -1.5505188484
 C          2.1459648933        2.7885663606       -1.8024594064
 C          1.7651817410        3.6245130085       -0.7666072718
 C          2.2253166790        3.4024304215        0.5213639038
 C          3.0751025550        2.3399382251        0.7775145774
 H          3.4502166752        2.1498882189        1.7703021496
 H          1.9196294478        4.0510655177        1.3270920640
 H          1.0974258701        4.4488264094       -0.9629221306
 H          1.7782436891        2.9565655158       -2.8020914668
 H          3.2962916274        1.0360515327       -2.3260868835
 H          4.5797722070       -0.2299442145        2.2598921716
 H          2.8180085840       -0.5696899168        3.7811507113
 H          0.4577524305       -1.2062749914        4.1277081707
 H         -0.9351323516       -1.8846501910        2.2061912715
 H         -0.7642375145       -3.0027033430       -0.0987761364
 C          0.4376451980       -2.2226578281       -1.6855635639
 C          1.2218054695       -3.4709768860       -1.9544677553
 C         -0.0718240376       -3.2289193919       -2.6713449750
 H         -0.0424906952       -2.9822964984       -3.7221050148
 H         -0.9330204838       -3.8145955540       -2.3844025030
 H          2.1455155871       -3.3892504234       -2.5075483164
 H          1.2401013270       -4.2238476642       -1.1808924612
 H          0.8197773041       -1.2880850328       -2.0812082280
