  62
        -98.93896223
 C          1.7515208902        1.2376462803        0.0077235004
 C          2.9887787600        0.9759877104        0.6373688009
 C          3.8440466604       -0.0657860293        0.0345955910
 C          3.3987600209       -0.7151710692       -1.0572632294
 C          4.0641070414       -1.8345536889       -1.8135955894
 C          3.9766155214       -3.1827217491       -1.0807484897
 C          4.2852640208       -3.1240163494        0.4130402204
 H          3.5947947604       -2.4297408996        0.8959946603
 H          4.0913226308       -4.1154200295        0.8313109001
 C          5.7201100205       -2.7396053892        0.7664393011
 H          6.4063444809       -3.4518259090        0.3029914812
 H          5.8234691501       -2.8370803794        1.8502620011
 C          6.1483792605       -1.3233674690        0.3752075216
 H          6.3813061609       -1.2609235287       -0.6844514983
 H          7.0774949802       -1.1054827390        0.9098591320
 C          5.1572875401       -0.2299754393        0.7610820315
 H          4.9065489497       -0.3308666696        1.8234385513
 H          5.6605353300        0.7410038908        0.6770321219
 H          2.9595034115       -3.5663586692       -1.1958975202
 H          4.6567018717       -3.8841212888       -1.5670458996
 H          3.5391503318       -1.9237629287       -2.7673232296
 H          5.0973751815       -1.5782934886       -2.0278761589
 O          2.1876960611       -0.4412637892       -1.6223222898
 C          1.3439834408        0.5411432705       -1.1298987099
 O          0.2869886010        0.6789097405       -1.7712402603
 O          3.3723204395        1.5854094902        1.6737696212
 C          0.8636232398        2.3288184800        0.5700058203
 C         -0.5226629403        1.8410779997        0.9171681097
 C         -1.6038905105        2.7144771695        0.9815533594
 C         -2.8654177805        2.2554447292        1.3164805288
 C         -3.0867340904        0.9140448591        1.5695392584
 C         -2.0181210002        0.0309588793        1.4902714686
 C         -0.7467966102        0.5005165296        1.1941389693
 H          0.0794101900       -0.1982519302        1.1531358394
 N         -2.2420692601       -1.3428675008        1.6814086882
 S         -3.5799675596       -2.0119284108        0.9233542175
 O         -4.7225405800       -1.9025300012        1.7979641471
 O         -3.1858670593       -3.3625123607        0.5837394674
 C         -3.8729431692       -1.0470649705       -0.5508230724
 C         -2.8226853989       -0.7889723701       -1.4082720919
 C         -3.0509496586       -0.0178884099       -2.5361136618
 C         -4.3228407086        0.4682696100       -2.7952192822
 C         -5.3716556489        0.1879370596       -1.9326911627
 C         -5.1459959792       -0.5716033607       -0.7963686028
 H         -5.9275087794       -0.7983922510       -0.0892950031
 H         -6.3604951088        0.5658557594       -2.1368462830
 H         -4.4945203883        1.0713022601       -3.6728502221
 H         -2.2200086084        0.2099063904       -3.1842865414
 H         -1.8331281489       -1.1607504000       -1.1952827416
 H         -1.4237411199       -1.9135902506        1.5276281784
 H         -4.0640945604        0.5353144689        1.8220426879
 H         -3.6901677907        2.9488505191        1.3713010787
 H         -1.4545572406        3.7601127696        0.7679988198
 H          1.3547559093        2.6521691299        1.5008636706
 C          0.8286314600        3.5037093902       -0.3914119994
 C          0.8332281995        4.9141509201        0.1153969810
 C          2.0563469499        4.3501606705       -0.5404096287
 H          2.3275663602        4.6995423408       -1.5253222885
 H          2.9035776197        4.1037791805        0.0832637916
 H          0.2623072096        5.6563554602       -0.4220172691
 H          0.8624624191        5.0648009699        1.1841555610
 H          0.2619964004        3.2839629304       -1.2893743297
