  62
        -98.93735111
 C          2.1477726805        1.1735713608        0.5170896068
 C          2.3671200147        0.3478206004       -0.6115048719
 C          3.1896627691       -0.8492146611       -0.3797966390
 C          3.6300894132       -1.1275573319        0.8599984205
 C          4.4291274668       -2.3316427288        1.2841659519
 C          5.8493273110       -2.4485942572        0.6976887762
 C          5.9398064941       -3.2997338542       -0.5749257112
 H          6.8482052810       -3.9037793918       -0.5289500462
 H          5.1009838525       -3.9968311170       -0.5912234905
 C          5.9855402527       -2.5244582108       -1.8951455877
 H          6.9913959003       -2.1231858997       -2.0381717499
 H          5.7956205921       -3.2324603612       -2.7046863989
 C          5.0057514109       -1.3573665079       -2.0186346005
 H          5.3648996306       -0.5120495049       -1.4268840034
 H          4.9997050247       -1.0257867313       -3.0587547388
 C          3.5645781875       -1.6762360902       -1.5748206543
 H          3.4524947586       -2.7376839554       -1.3577147828
 H          2.8608840434       -1.4130846750       -2.3674083331
 H          6.2521741142       -1.4519407150        0.5198896626
 H          6.4690734837       -2.9162355082        1.4643852721
 H          3.8604331175       -3.2320831117        1.0398862435
 H          4.4971191217       -2.2660555930        2.3721085102
 O          3.3467784829       -0.3342533807        1.9304587889
 C          2.6130327647        0.8315539636        1.7859561247
 O          2.4334136660        1.4606448932        2.8496812771
 O          1.9012186273        0.5909717676       -1.7544909993
 C          1.3303573957        2.4473525703        0.3837146090
 C         -0.0794388547        2.0939485390       -0.0259023605
 C         -0.7263197308        2.6388322677       -1.1261536173
 C         -2.0119845292        2.2389533519       -1.4498473389
 C         -2.6806449377        1.3021399654       -0.6839894444
 C         -2.0450046091        0.7561543477        0.4240348724
 C         -0.7579939647        1.1566493745        0.7443226240
 H         -0.2597111284        0.7269911523        1.6058351848
 N         -2.7227025846       -0.1867467830        1.2207993923
 S         -3.3415501109       -1.5466969951        0.4495097956
 O         -3.4173174592       -2.5615402688        1.4786564873
 O         -2.5782183862       -1.8834691757       -0.7300462009
 C         -4.9926596239       -1.0581994701       -0.0038555012
 C         -5.8387582456       -0.6201924539        0.9962643922
 C         -7.1290209458       -0.2411192535        0.6622158485
 C         -7.5496430788       -0.3085538924       -0.6578782109
 C         -6.6890916917       -0.7539062377       -1.6495431775
 C         -5.3964660343       -1.1337070608       -1.3223815303
 H         -4.6897243143       -1.4801727817       -2.0596320219
 H         -7.0177098763       -0.8061835961       -2.6750580456
 H         -8.5543676380       -0.0126925591       -0.9153514582
 H         -7.8009760635        0.1058285040        1.4305636965
 H         -5.4726900930       -0.5865034830        2.0087975277
 H         -2.2002502166       -0.4637424667        2.0399890860
 H         -3.6798568672        0.9865984032       -0.9359713427
 H         -2.5002078098        2.6640249455       -2.3134357662
 H         -0.2205573550        3.3666519654       -1.7385717389
 H          1.2889819298        2.8864462977        1.3912279930
 C          2.0142887734        3.4246773212       -0.5478307076
 C          1.7680150711        4.8955472852       -0.4040015692
 C          3.0888034959        4.3138760268       -0.0008529058
 H          3.9530404381        4.5158780986       -0.6156239132
 H          3.3135723876        4.2307594402        1.0528453044
 H          1.7279031362        5.5016755676       -1.2962344911
 H          1.0962223986        5.2151707601        0.3781123163
 H          2.1585556601        3.0216406378       -1.5432424303
