  62
        -98.93483007
 C          1.8897407085        0.7708907404       -0.1206145718
 C          2.9302857001        0.7170170412        0.8430101879
 C          4.0654972578       -0.1633687095        0.5403836608
 C          4.0625679886       -0.8787393278       -0.5981222237
 C          5.1056753018       -1.8675143111       -1.0479219157
 C          6.5055278665       -1.2968552085       -1.3456646505
 C          7.4797245988       -1.3611556398       -0.1627932543
 H          7.1605307072       -2.1562903874        0.5122029970
 H          8.4661915738       -1.6443020634       -0.5355647076
 C          7.6569769063       -0.0607116644        0.6267431429
 H          8.1639582981       -0.3044835138        1.5628784195
 H          8.3098005915        0.6113797900        0.0650248829
 C          6.3735332531        0.7067619610        0.9441761460
 H          6.6141716610        1.4901852611        1.6654933429
 H          6.0174691225        1.2147486662        0.0447127680
 C          5.2245862529       -0.1607254175        1.4938807885
 H          5.5662088072       -1.1770927943        1.6846428406
 H          4.8553723648        0.2600001406        2.4313005337
 H          6.9210830603       -1.8912380174       -2.1610027492
 H          6.4118803602       -0.2733837630       -1.7078586012
 H          5.1883711016       -2.6548317229       -0.2949433352
 H          4.7043837924       -2.3185702961       -1.9579368924
 O          3.0391054121       -0.8135629388       -1.4905629082
 C          1.9352994076        0.0065658067       -1.2868830836
 O          1.0962246117       -0.0590994077       -2.2052275687
 O          2.9086384548        1.3806748380        1.9137642819
 C          0.7305093304        1.7030850614        0.1867556041
 C         -0.4126016914        0.9688196086        0.8393416239
 C         -0.9852676782        1.4388495316        2.0152643206
 C         -2.0405173340        0.7640078747        2.6049894036
 C         -2.5498480788       -0.3866782468        2.0312740771
 C         -1.9879859031       -0.8612266809        0.8524420312
 C         -0.9280598307       -0.1854196786        0.2651286701
 H         -0.4964967615       -0.5590380705       -0.6518014192
 N         -2.5096528027       -2.0199192627        0.2499385924
 S         -4.1734457674       -2.1021618233        0.0724020952
 O         -4.7663764216       -2.5358867890        1.3132780076
 O         -4.3970527375       -2.9620676495       -1.0679291699
 C         -4.6815365540       -0.4301819427       -0.2870856378
 C         -5.4700943465        0.2607191295        0.6103395708
 C         -5.8098716685        1.5746559642        0.3303993258
 C         -5.3546805756        2.1724324881       -0.8343754317
 C         -4.5681909446        1.4632403314       -1.7292955348
 C         -4.2252371158        0.1492430701       -1.4546155321
 H         -3.6158871641       -0.4299974323       -2.1309200745
 H         -4.2127601144        1.9299311144       -2.6338301162
 H         -5.6126813724        3.1973197512       -1.0488666910
 H         -6.4235566122        2.1278987928        1.0227967921
 H         -5.8012142999       -0.2423118312        1.5040698510
 H         -2.0396172513       -2.2722633995       -0.6073126670
 H         -3.3652747718       -0.9305559520        2.4796127479
 H         -2.4703293058        1.1363227028        3.5220460315
 H         -0.5872901075        2.3311524537        2.4754129481
 H          1.1346340500        2.4065158175        0.9316223756
 C          0.2931234137        2.5266429713       -1.0177306310
 C         -0.9856254435        2.3041363759       -1.7617685888
 C         -0.8316564126        3.5113926936       -0.8896886911
 H         -0.7258553098        4.4798461497       -1.3540768371
 H         -1.3762031891        3.5214699119        0.0422921071
 H         -0.9635109054        2.4247398111       -2.8340673812
 H         -1.6416284308        1.5167911457       -1.4265723336
 H          1.1443647012        2.8364157007       -1.6163796130
