  62
        -98.94496341
 C         -1.8935159436       -0.7257109672       -0.1508463298
 C         -2.4600881440       -0.0820420340        0.9746246416
 C         -3.5331486493        0.8806169503        0.6933655947
 C         -3.8770924313        1.1258199780       -0.5844369655
 C         -4.9847366854        2.0435638798       -1.0122442716
 C         -6.3119275254        1.2845967865       -1.1506786899
 C         -6.6527647626        0.4111152506        0.0567416641
 H         -7.6231097052       -0.0499954410       -0.1393490239
 H         -5.9216554794       -0.3972397942        0.1294414184
 C         -6.7062784499        1.1667296435        1.3919268520
 H         -6.8044100456        2.2373148894        1.2083238871
 H         -7.5965138479        0.8490782817        1.9388327949
 C         -5.5078642597        0.9178299742        2.3095418394
 H         -5.7479292134        1.3180727893        3.2981938122
 H         -5.3500009633       -0.1577869839        2.4215258314
 C         -4.1847997892        1.5558441357        1.8675055713
 H         -4.3379268452        2.6181701819        1.6658155505
 H         -3.4777698039        1.4626489687        2.6972868007
 H         -7.1095050192        2.0118105277       -1.3133054807
 H         -6.2525646669        0.6423993270       -2.0324442642
 H         -5.0873625929        2.8463470326       -0.2845189868
 H         -4.7196976715        2.4742500950       -1.9793999595
 O         -3.2761832124        0.5247070294       -1.6424985743
 C         -2.2764968041       -0.4202433096       -1.4572388072
 O         -1.8200683894       -0.8979818398       -2.5120010174
 O         -2.0800805227       -0.2969575564        2.1580640268
 C         -0.7971115598       -1.7533149925        0.0660414951
 C          0.4836279029       -1.2845772768       -0.5797502936
 C          1.2555744635       -2.0743683758       -1.4206219255
 C          2.4140601607       -1.5702557912       -1.9878994251
 C          2.8331359262       -0.2804202012       -1.7219956969
 C          2.0799020106        0.5107645155       -0.8626099413
 C          0.9217866750        0.0036803406       -0.2949279822
 H          0.3342623015        0.6231719150        0.3715165237
 N          2.5058145115        1.8164219779       -0.5685300543
 S          4.1298731737        2.0661958420       -0.2548183345
 O          4.1732441855        3.2231617939        0.6120295860
 O          4.8521959148        2.1856853658       -1.4969548528
 C          4.6733750029        0.6083014791        0.6191649537
 C          5.6852791641       -0.1707013072        0.0962470072
 C          6.0737985799       -1.3122670758        0.7790524660
 C          5.4437196220       -1.6551603975        1.9650097835
 C          4.4307183692       -0.8601741407        2.4795153951
 C          4.0399416582        0.2834199042        1.8024311072
 H          3.2581523104        0.9234808492        2.1796413828
 H          3.9407886327       -1.1278115811        3.4020348187
 H          5.7427403739       -2.5465219999        2.4935138353
 H          6.8622595500       -1.9311224163        0.3821890873
 H          6.1451044807        0.1313590509       -0.8305871321
 H          1.9204963368        2.3030470008        0.0937299623
 H          3.7208221180        0.1320267013       -2.1733780752
 H          2.9965857139       -2.1905379614       -2.6515904371
 H          0.9449309971       -3.0813539632       -1.6439280245
 H         -0.6376307934       -1.7817688401        1.1543076519
 C         -1.2504312750       -3.1220007629       -0.3950773499
 C         -0.6850664453       -4.3565628270        0.2391312730
 C         -2.0988688299       -3.9491451646        0.5222692202
 H         -2.9018310152       -4.5320581482        0.0965103568
 H         -2.3290231788       -3.5352112706        1.4933421002
 H         -0.5181704887       -5.2244944459       -0.3805748097
 H          0.0455476785       -4.2256981904        1.0226940365
 H         -1.4864115573       -3.1483552402       -1.4528732409
