  62
        -98.94486032
 C         -1.9414386302       -0.5614654788       -0.6176602496
 C         -3.0163352701       -1.3260972192       -0.1024453700
 C         -4.3481397401       -0.7246918991       -0.2283350092
 C         -4.4844008402        0.4752221215       -0.8216886081
 C         -5.7789727903        1.2076950917       -1.0495221872
 C         -6.2526560400        2.0290090006        0.1574751337
 C         -6.7931778398        1.2091427296        1.3296863730
 H         -7.5531687999        0.5164688099        0.9667932526
 H         -7.2866309396        1.9077261890        2.0083342038
 C         -5.7200126796        0.4373032988        2.1100729121
 H         -5.8770347494        0.5786744379        3.1817872623
 H         -4.7345821397        0.8461624090        1.8746123823
 C         -5.7068610697       -1.0688669309        1.8488150307
 H         -6.6417642697       -1.5100265412        2.2013579105
 H         -4.8887950696       -1.5093943615        2.4242393902
 C         -5.5107152300       -1.4528879796        0.3762281804
 H         -6.4206146802       -1.2528996690       -0.1890666793
 H         -5.2948167401       -2.5228713095        0.3265152093
 H         -7.0474448100        2.6922371410       -0.1917033456
 H         -5.4249601499        2.6543873603        0.5001919041
 H         -6.5559901103        0.4986410420       -1.3365910277
 H         -5.6057654204        1.8908000325       -1.8838938066
 O         -3.4272653903        1.1729875019       -1.3157861377
 C         -2.1307450803        0.6877120718       -1.2086028084
 O         -1.2623120604        1.4482803922       -1.6764232779
 O         -2.8688160101       -2.4557910197        0.4355589789
 C         -0.5324657602       -1.1189393989       -0.5045325904
 C          0.2938402300       -0.1990695197        0.3588626803
 C         -0.0898658597       -0.0194547709        1.6867338606
 C          0.6013300105        0.8448105983        2.5117904112
 C          1.6975648404        1.5421755987        2.0332333416
 C          2.0903539701        1.3700014699        0.7119517914
 C          1.3931556699        0.4975535207       -0.1152383093
 H          1.7073180597        0.4017907416       -1.1402844694
 N          3.1839461900        2.0855898603        0.1994933318
 S          4.3429365598        1.3409852112       -0.7443738691
 O          5.4326871098        2.2907529812       -0.7910514185
 O          3.7882358195        0.9417725823       -2.0116831194
 C          4.8309277200       -0.0901842597        0.2012698595
 C          4.1983100599       -1.2978689795       -0.0134542615
 C          4.5431386200       -2.3824949902        0.7778461275
 C          5.5072221902       -2.2419569012        1.7639697874
 C          6.1360630403       -1.0223171714        1.9647301484
 C          5.7929893902        0.0666422794        1.1803370794
 H          6.2637619002        1.0295436993        1.2956081102
 H          6.8888243505       -0.9171978121        2.7293257583
 H          5.7713566503       -3.0891167217        2.3770865666
 H          4.0566429200       -3.3319701601        0.6206496467
 H          3.4569712497       -1.3712066688       -0.7916348514
 H          3.6156126602        2.7157139097        0.8595201623
 H          2.2356386505        2.2250567481        2.6730689121
 H          0.2882058307        0.9774078674        3.5364054114
 H         -0.9490817797       -0.5620651612        2.0567554302
 H         -0.6443174801       -2.0776977694        0.0225285988
 C          0.0561487095       -1.3833692677       -1.8729086107
 C          1.1269607994       -2.4185211476       -2.0381742819
 C         -0.2538912607       -2.6782956371       -2.5597631318
 H         -0.4151169209       -2.6689846961       -3.6273004118
 H         -0.8759089006       -3.3850763675       -2.0301217023
 H          1.9186926293       -2.2308066970       -2.7486438719
 H          1.4374855396       -2.9576460584       -1.1556874824
 H          0.1060741494       -0.4950072471       -2.4926712799
