  62
        -98.94042971
 C         -2.4427219914        1.0846733739        0.0198304741
 C         -2.4233489123       -0.3074706596       -0.2354153769
 C         -3.7164467888       -0.9046309959       -0.5942016684
 C         -4.8103903794       -0.1269528622       -0.6901608780
 C         -6.1924241388       -0.5841380179       -1.0714050529
 C         -7.0055084406       -1.1567522330        0.0976118581
 C         -6.5615673152       -2.5367680910        0.5840758428
 H         -7.3427444483       -2.9084133236        1.2500575022
 H         -6.5048224937       -3.2193452334       -0.2643298272
 C         -5.2258487582       -2.5419803189        1.3406723626
 H         -5.3229540294       -3.1424470167        2.2480136829
 H         -4.9801973435       -1.5250536317        1.6553931739
 C         -4.0494679342       -3.1101234196        0.5464523727
 H         -4.2236409091       -4.1683387799        0.3388731866
 H         -3.1493311507       -3.0323093309        1.1621013544
 C         -3.7767302734       -2.3905934157       -0.7810872656
 H         -2.8025568877       -2.7167817744       -1.1543682143
 H         -4.5389489043       -2.6525793002       -1.5147103984
 H         -6.9688845039       -0.4484483974        0.9283813995
 H         -8.0442013092       -1.2287066906       -0.2328250856
 H         -6.7145473003        0.2946854425       -1.4556239548
 H         -6.1259958838       -1.3255606228       -1.8680014230
 O         -4.7787446424        1.2137377743       -0.4648400031
 C         -3.6057339613        1.8468929158       -0.0876050323
 O         -3.7231635522        3.0735515399        0.1085053517
 H          1.4602436391        0.9925246687        0.7612183065
 C          1.1933578019        1.1726816743       -0.2657261052
 C         -0.0894722637        1.5751591802       -0.6017145361
 C         -0.3887258692        1.8045712983       -1.9424894868
 C          0.5655643969        1.6099588802       -2.9212770462
 C          1.8372794216        1.1806067054       -2.5842598632
 C          2.1522505857        0.9645582896       -1.2483736743
 N          3.4572020348        0.5805504926       -0.8832920776
 S          3.6966945851       -0.5938727034        0.3067541399
 O          3.0758988342       -1.8414873029       -0.0811961707
 O          3.3211654305       -0.0569156350        1.5891797295
 C          5.4725470802       -0.7421302190        0.2208580748
 C          6.0410035707       -1.8140016356       -0.4402840345
 C          7.4226075220       -1.8992450101       -0.5159768388
 C          8.2075909572       -0.9148911145        0.0649537305
 C          7.6224564692        0.1551957673        0.7258474588
 C          6.2421351706        0.2452979965        0.8064229211
 H          5.7433683771        1.0525567197        1.3166751379
 H          8.2362178637        0.9173740074        1.1781955152
 H          9.2822919982       -0.9834372068        0.0046445687
 H          7.8802710820       -2.7315265865       -1.0261385193
 H          5.3909815545       -2.5595083344       -0.8697181659
 H          4.0183729945        0.3492398526       -1.6933208484
 H          2.5800581725        1.0168032027       -3.3506149672
 H          0.3162519656        1.7847091503       -3.9573036780
 H         -1.3871334113        2.1283111949       -2.2058045955
 C         -1.1669168641        1.7956127925        0.4320684467
 H         -1.4082398329        2.8689652401        0.4516112329
 C         -0.7618839694        1.3638888464        1.8261204250
 C         -0.0028717549        2.2997192732        2.7162580604
 C         -1.4393132313        1.9878196469        3.0075906914
 H         -1.6720255625        1.3639425964        3.8575853030
 H         -2.1798751254        2.7486989804        2.8068886251
 H          0.2328633435        3.2779220094        2.3250710043
 H          0.7580154526        1.8877380180        3.3622017984
 H         -0.5293972245        0.3055963768        1.8843873348
 O         -1.3837494312       -1.0157547270       -0.1726066594
