  62
        -98.93961784
 C         -1.3694387198       -1.5670687929        0.1604257192
 C         -1.6593786806       -0.5091330274        1.0579788782
 C         -2.9080737343        0.2436344371        0.8382762813
 C         -3.6825775188       -0.0704165500       -0.2172532213
 C         -5.0267112357        0.4588402697       -0.6739847997
 C         -5.6684033279        1.6590475874        0.0161301962
 C         -4.9901584503        2.9958991246       -0.2844262047
 H         -5.2061881702        3.2665165299       -1.3209550461
 H         -5.4311474827        3.7609518776        0.3577774101
 C         -3.4739656389        3.0097113704       -0.1119941793
 H         -3.0292516254        2.2761924477       -0.7873521096
 H         -3.1089423682        3.9949116699       -0.4137187746
 C         -2.9806903568        2.7482348628        1.3091827025
 H         -3.4563777319        3.4513099300        1.9959856437
 H         -1.9045311542        2.9411813412        1.3339545690
 C         -3.2118699969        1.3235603882        1.8388572803
 H         -4.2232580358        1.2097181286        2.2236474902
 H         -2.5264303305        1.1618927862        2.6764740580
 H         -5.7279659178        1.4872623837        1.0869383237
 H         -6.6962057291        1.7202097532       -0.3513655782
 H         -4.9239674558        0.6705207203       -1.7431951780
 H         -5.7110391769       -0.3930675475       -0.5967390960
 O         -3.3282114087       -1.0537631601       -1.0933700178
 C         -2.1935030990       -1.8324354107       -0.9325848962
 O         -2.0571878944       -2.6958801555       -1.8192521285
 O         -0.9123371721       -0.2175753642        2.0317563642
 C         -0.1352130133       -2.4040034373        0.4545416946
 C          1.0341629077       -1.9885537521       -0.4052928506
 C          1.0736814066       -2.2517258391       -1.7709788796
 C          2.1627330004       -1.8579224636       -2.5263393571
 C          3.2194592776       -1.1780145142       -1.9451810962
 C          3.1843112853       -0.9003820064       -0.5847963865
 C          2.1021929836       -1.3207413079        0.1765980613
 H          2.0948525635       -1.1035461946        1.2343152383
 N          4.2276170763       -0.1914165991        0.0389132906
 S          3.8107866495        1.1272886640        0.9897571498
 O          5.0233409401        1.9124388808        1.0727585160
 O          3.2622778136        0.6788102494        2.2422977854
 C          2.5950940666        1.9791765551        0.0029932348
 C          1.2502903301        1.7179731704        0.1694773587
 C          0.3485914876        2.2954751095       -0.7110070717
 C          0.7968844733        3.1273790938       -1.7241378802
 C          2.1505790400        3.3932910770       -1.8662319164
 C          3.0595379430        2.8052264630       -1.0030733813
 H          4.1203962681        2.9819983117       -1.0787830300
 H          2.4973105822        4.0471702343       -2.6500423945
 H          0.0857821320        3.5701880310       -2.4036185422
 H         -0.7018069193        2.0789157725       -0.5981358096
 H          0.9146528394        1.0795661401        0.9718286743
 H          4.9836221827        0.0546922304       -0.5848096330
 H          4.0643903935       -0.8641044541       -2.5390231666
 H          2.1847139684       -2.0731794015       -3.5838364028
 H          0.2368978712       -2.7504012005       -2.2344768723
 H          0.1260494098       -2.1688959973        1.4958014847
 C         -0.3908617138       -3.8952151202        0.3537268294
 C          0.5435142049       -4.8367106373        1.0500581186
 C         -0.8497417859       -4.6431427799        1.5675440839
 H         -1.5649886742       -5.4418988686        1.4405180482
 H         -0.9806725074       -4.0824095219        2.4819392692
 H          0.7880241128       -5.7706578540        0.5679963343
 H          1.3578533925       -4.4061927170        1.6138019174
 H         -0.7985660887       -4.2025658721       -0.6000585063
