  62
        -98.93938450
 C         -1.6117523492       -1.4876594607        0.2949505342
 C         -1.3742216503       -0.4029366381       -0.5819864201
 C         -2.0916434002        0.8412142116       -0.2794315317
 C         -2.8584966765        0.9147416744        0.8223676246
 C         -3.5870791771        2.1286668224        1.3364185390
 C         -4.7151673844        2.6865145961        0.4474993698
 C         -4.2751964617        3.8044287577       -0.5057813783
 H         -5.0529318987        4.5703858587       -0.5318529105
 H         -3.3810015449        4.2787502942       -0.0990372363
 C         -4.0150499424        3.3791732013       -1.9536412052
 H         -4.9718487795        3.2512964068       -2.4648610372
 H         -3.4818349931        4.1926462168       -2.4499895705
 C         -3.2222616345        2.0846639711       -2.1329960363
 H         -2.9396041035        2.0014428423       -3.1840684068
 H         -3.8643349692        1.2280127750       -1.9152318143
 C         -1.9612485125        1.9749260571       -1.2538030577
 H         -1.7689093267        2.9079078114       -0.7253358551
 H         -1.0903893753        1.7520454073       -1.8736645766
 H         -5.4732932315        3.0911114779        1.1200218933
 H         -5.1774485646        1.8704716790       -0.1071406059
 H         -4.0074112904        1.8275649298        2.2986633836
 H         -2.8503560637        2.9130192249        1.5285697333
 O         -3.0247216705       -0.1402024452        1.6687781512
 C         -2.4046900255       -1.3552046554        1.4320777622
 O         -2.6272437133       -2.2263621857        2.3006068894
 O         -0.5927027018       -0.4668687703       -1.5666713497
 C         -0.8842140752       -2.8046915929        0.0767275663
 C          0.5975898138       -2.5198796184        0.0547173103
 C          1.4626131680       -2.9576066323       -0.9392283544
 C          2.7874788604       -2.5541726487       -0.9468695562
 C          3.2703127351       -1.6915766076        0.0207951998
 C          2.4192913419       -1.2761539685        1.0355772111
 C          1.1076684811       -1.7126644190        1.0648380490
 H          0.4484063964       -1.3671390892        1.8526479086
 N          2.8897023925       -0.3121948447        1.9786771927
 S          2.3380116818        1.2270605154        1.5408359060
 O          2.9110327339        2.1375916405        2.5109244189
 O          0.8934412924        1.2678561353        1.4417203561
 C          3.0980107397        1.4571843117       -0.0476980291
 C          4.3851710260        1.9576573007       -0.0892442702
 C          5.0115171931        2.0932545784       -1.3173064774
 C          4.3445193078        1.7213499804       -2.4752699196
 C          3.0538246854        1.2191300406       -2.4144648587
 C          2.4183724607        1.0821574573       -1.1896543822
 H          1.4165247090        0.6865164260       -1.1138809566
 H          2.5320746470        0.9242450419       -3.3107337899
 H          4.8327801336        1.8226702504       -3.4317528194
 H          6.0151165541        2.4837870455       -1.3677047753
 H          4.8590129512        2.2333374685        0.8385094325
 H          2.5607111110       -0.4975626813        2.9179527823
 H          4.2863040686       -1.3326833657        0.0004947719
 H          3.4437452570       -2.8933572990       -1.7331288451
 H          1.0918041506       -3.5971313960       -1.7234463771
 H         -1.1124335241       -3.4311466943        0.9512900429
 C         -1.3901552569       -3.4942041344       -1.1722047584
 C         -1.3196832503       -4.9864327915       -1.2904863086
 C         -2.6427218240       -4.3119128584       -1.0905801023
 H         -3.3363030034       -4.2764307952       -1.9171071620
 H         -3.1202412363       -4.3905464637       -0.1244137537
 H         -1.1084170694       -5.4182142425       -2.2569197706
 H         -0.9015197385       -5.5346053117       -0.4598756341
 H         -1.2387133825       -2.8988546076       -2.0650503895
