  62
        -98.94470770
 C         -1.8503676241        0.6324301007       -0.4221903800
 C         -2.5231090269        0.1968838697        0.7453874177
 C         -3.6206335553       -0.7550482958        0.5274025167
 C         -3.8851360031       -1.2022680712       -0.7133099551
 C         -4.9556352430       -2.1901750854       -1.0901855348
 C         -6.3429462901       -1.5628455537       -1.2847765534
 C         -7.0443951714       -1.1226245303        0.0007791455
 H         -8.0827758302       -0.9074594158       -0.2591355268
 H         -7.0517619623       -1.9501821678        0.7108480246
 C         -6.4334101298        0.1206476647        0.6621679717
 H         -5.7993401753        0.6420999151       -0.0585048157
 H         -7.2309874073        0.8112260920        0.9450886069
 C         -5.6164668326       -0.1679559575        1.9217382747
 H         -5.2010572117        0.7755819785        2.2845323293
 H         -6.2706597082       -0.5686530588        2.6991946586
 C         -4.4538643235       -1.1466940927        1.7100478202
 H         -4.8329038385       -2.1615814612        1.5910948923
 H         -3.8111065313       -1.1140890295        2.5933056280
 H         -6.2486226404       -0.7087409053       -1.9593931088
 H         -6.9705201274       -2.3083280457       -1.7786401750
 H         -4.6452982508       -2.6394767705       -2.0361661616
 H         -5.0123043044       -2.9753075622       -0.3355590232
 O         -3.1674474167       -0.8112696623       -1.8007273685
 C         -2.1499589184        0.1222372121       -1.6849833732
 O         -1.5845979639        0.4015835105       -2.7630639721
 O         -2.2289323686        0.5785045450        1.9069093839
 C         -0.7279862300        1.6514356991       -0.3229355648
 C          0.4203252598        1.0615990704        0.4599853931
 C          0.9823823867        1.6592668940        1.5791327578
 C          2.0282614067        1.0464771315        2.2493853323
 C          2.5433349184       -0.1592258153        1.8124816000
 C          2.0020030464       -0.7546318813        0.6790408806
 C          0.9522084510       -0.1427862392        0.0130969102
 H          0.5272477741       -0.6086722781       -0.8678787869
 N          2.5417929497       -1.9644587109        0.2081561374
 S          4.2105118491       -2.0680509949        0.1022576942
 O          4.4674766649       -3.0027974191       -0.9709858090
 O          4.7545167227       -2.4253935966        1.3887594658
 C          4.7524595166       -0.4279528434       -0.3462808025
 C          4.2973533355        0.1042466883       -1.5364718069
 C          4.6727416188        1.3922178644       -1.8815572440
 C          5.4924177977        2.1226762136       -1.0345469737
 C          5.9465775900        1.5717010545        0.1533727105
 C          5.5726612706        0.2844399727        0.5046042528
 H          5.8993580582       -0.1812806918        1.4199808217
 H          6.5856591040        2.1413035459        0.8084919608
 H          5.7782347492        3.1270268354       -1.3044056242
 H          4.3201377416        1.8212455101       -2.8058685342
 H          3.6633877013       -0.4898110822       -2.1756432213
 H          2.1005210452       -2.3091464291       -0.6315440884
 H          3.3482641010       -0.6545322868        2.3308383713
 H          2.4467197929        1.5148840109        3.1268508585
 H          0.5951168969        2.5988318042        1.9359148043
 H         -0.3805413701        1.8169539836       -1.3530510433
 C         -1.2430749779        2.9611973810        0.2336868590
 C         -0.5388156275        4.2419991877       -0.0953949228
 C         -1.8766626055        3.9451743871       -0.7016216533
 H         -2.7358173135        4.5023610386       -0.3592729144
 H         -1.9191143853        3.6801504873       -1.7483879242
 H         -0.4800141004        5.0084207953        0.6623577961
 H          0.3296788343        4.1840804381       -0.7336415356
 H         -1.6833005893        2.8542100495        1.2178789199
