  62
        -98.94442976
 C         -1.9459262989       -1.0786333302       -0.2173596304
 C         -2.4478264888        0.0803150901       -0.8565066399
 C         -3.9048109288        0.2669343901       -0.7854366699
 C         -4.6596519789       -0.6560659301       -0.1618581202
 C         -6.1448693489       -0.5614801701        0.0317526598
 C         -6.4879235188        0.1292252194        1.3592075700
 C         -5.7383371788        1.4424638393        1.5841239905
 H         -6.0819986188        1.8542479789        2.5355089107
 H         -4.6718582088        1.2315697892        1.6914599405
 C         -5.9368719688        2.4847760597        0.4748709709
 H         -6.8191144388        2.2345745499       -0.1154752092
 H         -6.1211102487        3.4570095095        0.9368277213
 C         -4.7358398388        2.6559353400       -0.4573755490
 H         -3.8306039888        2.8156944398        0.1342052311
 H         -4.8968177987        3.5556163302       -1.0574460987
 C         -4.4755322688        1.4985916504       -1.4299357994
 H         -5.3919512788        1.2613200906       -1.9742287595
 H         -3.7240831388        1.8338864606       -2.1510094293
 H         -7.5635155788        0.3131244094        1.3846723701
 H         -6.2398175089       -0.5508967809        2.1773238998
 H         -6.5803511188       -0.0111185498       -0.7998658400
 H         -6.5556189189       -1.5724441801        0.0417058094
 O         -4.1422115589       -1.7704298503        0.4156561094
 C         -2.7767834189       -2.0027824304        0.4157585193
 O         -2.4310329689       -3.0471060106        1.0043493089
 O         -1.7210161588        0.9172910803       -1.4529675496
 C         -0.4529965889       -1.3568430202       -0.2162767205
 C          0.2870996212       -0.1861872104        0.3831120500
 C         -0.1237621888        0.2976774891        1.6234587702
 C          0.5057369912        1.3802766389        2.2044527806
 C          1.5707203612        1.9953970491        1.5689918708
 C          1.9958513612        1.5156376995        0.3369242606
 C          1.3586173212        0.4268856998       -0.2456846998
 H          1.6994674412        0.0909545801       -1.2099923899
 N          3.0651574712        2.1300804797       -0.3342148391
 S          4.2605406512        1.2081180000       -1.0508259694
 O          5.3494571312        2.1349397700       -1.2669446391
 O          3.7512188212        0.5399355304       -2.2201745997
 C          4.7110629112        0.0212827695        0.2013657301
 C          4.1860342011       -1.2539169305        0.1588154996
 C          4.4933588411       -2.1378941609        1.1813046093
 C          5.3145795311       -1.7336411713        2.2222174695
 C          5.8390943011       -0.4500403013        2.2473327700
 C          5.5321618812        0.4392878391        1.2307963303
 H          5.9277365412        1.4417929891        1.2074511407
 H          6.4822664311       -0.1410360916        3.0554978801
 H          5.5491787711       -2.4248177516        3.0163354092
 H          4.0885014311       -3.1372890509        1.1620340989
 H          3.5557156911       -1.5332648702       -0.6690221205
 H          3.4656195912        2.9172751295        0.1546684312
 H          2.0593273512        2.8472159389        2.0170518011
 H          0.1678092112        1.7491755585        3.1611969707
 H         -0.9566007189       -0.1832246911        2.1190852200
 H         -0.3084998189       -2.2276191705        0.4400250592
 C          0.0089818811       -1.7195125997       -1.6118583506
 C          1.1553540411       -2.6642850897       -1.8054832909
 C         -0.2413734889       -3.1052212095       -2.1229877311
 H         -0.5240939689       -3.2296731891       -3.1575245212
 H         -0.7234401289       -3.8007978697       -1.4512282714
 H          1.8399516911       -2.4844866994       -2.6216008509
 H          1.6159579111       -3.0750151200       -0.9194228711
 H         -0.1057269388       -0.9038577994       -2.3170888803
