  62
        -98.94431076
 C         -1.1434838467       -1.2426837169        0.8348290248
 C         -2.3145494071       -1.3808032866        0.0507765291
 C         -3.2796700813       -0.2735248764        0.1421758750
 C         -2.9900215335        0.8007093355        0.8979544808
 C         -3.8642091128        2.0140354724        1.0306330882
 C         -3.5392732674        3.0736260773       -0.0319043783
 C         -3.4268529511        2.5187539389       -1.4511924837
 H         -3.2022183078        3.3586942135       -2.1123898037
 H         -2.5798922313        1.8304173914       -1.4993841552
 C         -4.6883073941        1.8019780809       -1.9516660014
 H         -4.9003975733        2.1324415520       -2.9707300764
 H         -5.5437215766        2.0830508810       -1.3360008047
 C         -4.5743295411        0.2775609602       -1.9908573226
 H         -5.4280571398       -0.1136192209       -2.5508006744
 H         -3.6691845898       -0.0108889904       -2.5310473840
 C         -4.5637058035       -0.4206425676       -0.6255690544
 H         -5.4100406772       -0.0739608391       -0.0289195748
 H         -4.6845205483       -1.4934082091       -0.8022140696
 H         -4.3154184294        3.8406091512       -0.0005383818
 H         -2.5882586201        3.5417581538        0.2258572436
 H         -3.7043942587        2.4436335411        2.0209122485
 H         -4.9058523097        1.7094445508        0.9441422256
 O         -1.8400160555        0.9127315310        1.6114833939
 C         -0.8996648662       -0.1024602961        1.6066136311
 O          0.0949580424        0.1177400793        2.3256389131
 O         -2.5670665628       -2.3705027070       -0.6843645652
 C         -0.0415925631       -2.2933522382        0.8391589679
 C          0.7642968761       -2.0997476331       -0.4220360228
 C          0.4238033292       -2.6960063202       -1.6307994736
 C          1.1507357424       -2.4142906085       -2.7737896700
 C          2.2187115698       -1.5357663112       -2.7376232438
 C          2.5680408890       -0.9363642148       -1.5314168478
 C          1.8451080656       -1.2275787127       -0.3843462875
 H          2.1198869065       -0.7630100297        0.5512841051
 N          3.6469118430       -0.0504058228       -1.4700260517
 S          3.9828007281        0.9252864910       -0.1720681446
 O          4.9747260395        1.8487560617       -0.6843077630
 O          4.4012947177        0.1294557965        0.9557795265
 C          2.5061290890        1.8401861727        0.2344675412
 C          1.6015892535        2.1873793164       -0.7482558470
 C          0.5023470823        2.9565385189       -0.4019504880
 C          0.3331761702        3.3716402101        0.9092826975
 C          1.2490344693        3.0138639424        1.8840979497
 C          2.3456030078        2.2400554027        1.5449135973
 H          3.0708476209        1.9238151611        2.2775174124
 H          1.1070452204        3.3225501472        2.9071233394
 H         -0.5214174617        3.9720785333        1.1798269197
 H         -0.2202211425        3.2265435092       -1.1563750462
 H          1.7495255030        1.8518534770       -1.7622473875
 H          4.0306812466        0.2710685232       -2.3442105857
 H          2.7806243163       -1.3136483998       -3.6316660890
 H          0.8777895489       -2.8804655241       -3.7084423144
 H         -0.4275692784       -3.3550846978       -1.6764747110
 H          0.6077817082       -2.0432097419        1.6892464755
 C         -0.5522231700       -3.7060659148        1.0246226506
 C          0.4228144124       -4.7813769335        1.3955605772
 C         -0.5780129788       -4.2974253174        2.4004915319
 H         -1.3983366191       -4.9470833869        2.6666425298
 H         -0.2252045634       -3.6837263108        3.2170072328
 H          0.2923947184       -5.7654049933        0.9721973676
 H          1.4551354880       -4.4933492948        1.5295216630
 H         -1.3659589556       -3.9674751090        0.3618052452
