  62
        -98.94379460
 C         -1.8964967053       -1.2406854384        0.3731619007
 C         -1.9304338470       -0.2023453912       -0.5892875701
 C         -3.2688219666        0.2882194479       -0.9506233480
 C         -4.3538253258       -0.2758273702       -0.3895110738
 C         -5.7686083496        0.1655185266       -0.6257162659
 C         -6.1995670954        1.2196905722        0.4037598219
 C         -5.2007487170        2.3649952277        0.5712677785
 H         -4.2763756752        1.9730717671        1.0020568086
 H         -5.6232131633        3.0608964682        1.2994667205
 C         -4.8739631552        3.1182066384       -0.7258226710
 H         -4.8933561904        4.1908828172       -0.5216012050
 H         -5.6418839026        2.9175429703       -1.4738743018
 C         -3.4977559688        2.8017797069       -1.3144596330
 H         -2.7335038124        2.9137145134       -0.5408256542
 H         -3.2841762464        3.5393646910       -2.0927527910
 C         -3.3459477242        1.4119227904       -1.9454605126
 H         -2.3967508870        1.3975544477       -2.4887154257
 H         -4.1537637791        1.2420739926       -2.6600218298
 H         -6.3223362356        0.7285487707        1.3720063382
 H         -7.1686488976        1.6213666891        0.1021824648
 H         -6.4206587421       -0.7049438217       -0.5353453307
 H         -5.8555108430        0.5690735594       -1.6325976244
 O         -4.2813550883       -1.2932520132        0.5068517052
 C         -3.0556253010       -1.7898167108        0.9204078875
 O         -3.1282898514       -2.7053484685        1.7657768119
 O         -0.9025889496        0.2926220676       -1.1169115223
 C         -0.5671184139       -1.8090765891        0.8301368460
 C          0.3282498097       -0.7366525290        1.4037687043
 C         -0.2163803634        0.3529676207        2.0759943144
 C          0.5918773660        1.3520113868        2.5857764083
 C          1.9675809020        1.2794919098        2.4543620236
 C          2.5242267556        0.1821999680        1.8144908106
 C          1.7097342149       -0.8157258684        1.2940727070
 H          2.1618492184       -1.6578229613        0.7923602248
 N          3.9312727368        0.1123798588        1.6817102209
 S          4.5875913554        1.1235941780        0.5146311083
 O          6.0146574466        0.8978482272        0.5507486657
 O          4.1415997373        2.4687901786        0.7668471040
 C          3.9151779835        0.5039508271       -1.0160904437
 C          2.6023277078        0.7926507485       -1.3298978236
 C          2.0400858394        0.2150762672       -2.4574618855
 C          2.7993492183       -0.6314424684       -3.2504021704
 C          4.1207803991       -0.9040438919       -2.9273392252
 C          4.6833862648       -0.3411861069       -1.7935606133
 H          5.7025280478       -0.5332308551       -1.4984600473
 H          4.7081575391       -1.5603359917       -3.5494744279
 H          2.3559564995       -1.0831028321       -4.1242866445
 H          1.0035989313        0.4133814338       -2.6794649546
 H          2.0282915249        1.4516006440       -0.6989670671
 H          4.2679143055       -0.8272807682        1.5185200321
 H          2.6127259115        2.0592870896        2.8243676742
 H          0.1463922572        2.1965860679        3.0899794901
 H         -1.2906192484        0.4169661492        2.1850796692
 H         -0.8027163322       -2.5229011564        1.6338348384
 C          0.0892718802       -2.5601195356       -0.3136194779
 C          0.8804395310       -3.8071852902       -0.0586645823
 C         -0.4645959262       -3.8932121358       -0.7135480824
 H         -0.5157775805       -4.1381454631       -1.7635773969
 H         -1.2924946524       -4.2773172678       -0.1348858027
 H          1.7546057794       -3.9960166507       -0.6639865484
 H          0.9648230463       -4.1505618615        0.9617111914
 H          0.4213081016       -1.8977249268       -1.1050015283
