  62
        -98.93983968
 C         -2.2609315810       -0.9315455392        0.6456785905
 C         -3.3727547111       -0.8019596697       -0.2225582395
 C         -4.2856434010        0.3160891505        0.0640824298
 C         -4.0272076410        1.1385934611        1.0957736593
 C         -4.8443149310        2.3432939313        1.4612798286
 C         -4.3232043410        3.6055378309        0.7602841079
 C         -4.1020576211        3.4313557800       -0.7423344220
 H         -3.2891758611        2.7186114599       -0.9017869816
 H         -3.7651910711        4.3935117197       -1.1343723826
 C         -5.3432785411        2.9685055695       -1.5180291217
 H         -5.4307418911        3.5673386490       -2.4269596121
 H         -6.2396464311        3.1486298999       -0.9236000918
 C         -5.3087566711        1.5019863993       -1.9516520108
 H         -4.3662973412        1.2938423589       -2.4643412607
 H         -6.1160266512        1.3413059788       -2.6710227807
 C         -5.4843725511        0.4709646599       -0.8298486802
 H         -5.6358891411       -0.5058509603       -1.2979463996
 H         -6.3724431411        0.7128090803       -0.2427775303
 H         -3.3702642110        3.8858243811        1.2155688077
 H         -5.0345166410        4.4150062910        0.9343573874
 H         -5.8828612810        2.1662757911        1.1883129888
 H         -4.7805618509        2.4857710219        2.5413638286
 O         -2.9509177110        0.9840731915        1.9099341894
 C         -2.0493159610       -0.0456107986        1.7067563699
 O         -1.1180037109       -0.0762103481        2.5381089799
 H          1.3274054590       -1.1994404592        0.7532357405
 C          1.0377887689       -1.2852794498       -0.2839797995
 C         -0.2482336811       -1.6936248600       -0.6106267992
 C         -0.6061367012       -1.7732651708       -1.9526277891
 C          0.3071872888       -1.4479066614       -2.9384887593
 C          1.5871132788       -1.0384658812       -2.6097321596
 C          1.9556757189       -0.9569925904       -1.2717121797
 N          3.2644829089       -0.5846378802       -0.9164117500
 S          3.5050328090        0.3445594506        0.4729219194
 O          3.4368227490       -0.5164490887        1.6262532300
 O          2.6242684690        1.4917921806        0.4609617788
 C          5.1946343890        0.8528419305        0.2114619591
 C          5.4620235490        2.1142002902       -0.2854795717
 C          6.7799121989        2.4802403600       -0.5115387220
 C          7.8017858790        1.5825978502       -0.2415856015
 C          7.5178846790        0.3200427505        0.2580030193
 C          6.2028908590       -0.0516252894        0.4875597696
 H          5.9337549190       -1.0169526691        0.8832912201
 H          8.3150056990       -0.3742250894        0.4694669396
 H          8.8261451589        1.8698376101       -0.4188380317
 H          7.0036983289        3.4622222898       -0.8961269526
 H          4.6354468490        2.7808044501       -0.4728502721
 H          3.7813540089       -0.2026106507       -1.6975564102
 H          2.2976588988       -0.7847848117       -3.3818663198
 H          0.0169352188       -1.5085584220       -3.9766030393
 H         -1.6113737812       -2.0650135309       -2.2124982489
 C         -1.2198218010       -2.0309403693        0.4957355311
 H         -0.6553320910       -2.0293986588        1.4386563011
 C         -1.8298792111       -3.4062911594        0.3072226419
 C         -0.9907920211       -4.6125455993        0.5975439226
 C         -2.1207470110       -4.2470847887        1.5117782325
 H         -3.0086557010       -4.8612791387        1.5086189429
 H         -1.8801848210       -3.8322796981        2.4803832522
 H          0.0173359090       -4.4452060691        0.9470671525
 H         -1.1004735211       -5.4806550096       -0.0338802169
 H         -2.5291295411       -3.4619837599       -0.5158428080
 O         -3.6180208911       -1.5711068303       -1.1884104891
