  62
        -98.94794110
 C         -1.1418263988       -1.1906810029        0.4747602859
 C         -1.5391577977       -0.4798304365       -0.6831502527
 C         -2.3060549770        0.7498998651       -0.4392422032
 C         -2.4805179169        1.1912083391        0.8194140486
 C         -3.1952001433        2.4520417660        1.2240659489
 C         -4.7160553044        2.2889350069        1.3534052532
 C         -5.4679095560        2.1382491953        0.0301736792
 H         -6.5312303877        2.2460038735        0.2530684552
 H         -5.1915871855        2.9542289056       -0.6381921039
 C         -5.2448800469        0.7926842596       -0.6746922850
 H         -4.8299499753        0.0739752016        0.0359440318
 H         -6.2053307490        0.3930692053       -1.0077594516
 C         -4.3333775934        0.8617426481       -1.9001710882
 H         -4.8061377154        1.4713583187       -2.6731995939
 H         -4.2140123812       -0.1502785279       -2.2948829070
 C         -2.9355946675        1.4297731690       -1.6186882246
 H         -2.3061849109        1.2350682441       -2.4904847553
 H         -2.9994125653        2.5059882702       -1.4568618386
 H         -4.9210596062        1.4251049352        1.9902668622
 H         -5.0966109171        3.1758427659        1.8653255911
 H         -2.7943696479        2.7371729050        2.1994054789
 H         -2.9726567663        3.2476806278        0.5124294316
 O         -1.9924205622        0.5277222419        1.9032900440
 C         -1.3650020277       -0.7008026020        1.7619031811
 O         -1.0526640461       -1.2455476782        2.8408891968
 H          1.5449096101       -1.0228696747        1.2747607941
 C          1.8222887253       -1.4864912080        0.3386211136
 C          0.9166236904       -2.3215589584       -0.3063494300
 C          1.2969268385       -2.9256596555       -1.4969172219
 C          2.5521999671       -2.6881608995       -2.0298571982
 C          3.4478291490       -1.8522770886       -1.3898471676
 C          3.0806128220       -1.2496366671       -0.1908023739
 N          3.9884494291       -0.4278567388        0.4988261236
 S          3.4960736261        1.0123225335        1.1839065149
 O          4.7333069200        1.7030731158        1.4779030717
 O          2.6222270481        0.7700590198        2.3028271334
 C          2.6329314534        1.8703240403       -0.1174737764
 C          3.3850769317        2.4743061279       -1.1070708030
 C          2.7347185434        3.1147769365       -2.1482944145
 C          1.3484691544        3.1392056827       -2.1823280106
 C          0.6086752998        2.5318281957       -1.1802239508
 C          1.2541537324        1.8850838226       -0.1382505394
 H          0.7073394836        1.3989245440        0.6554301025
 H         -0.4684488351        2.5450030334       -1.2033490598
 H          0.8379976427        3.6362122292       -2.9919377223
 H          3.3067322025        3.5915645466       -2.9277822661
 H          4.4600116579        2.4476101709       -1.0315016795
 H          4.8789825433       -0.3147641890        0.0360090370
 H          4.4273017968       -1.6712905621       -1.8053135294
 H          2.8352099115       -3.1594387334       -2.9586200041
 H          0.6105902508       -3.5776264326       -2.0105538278
 C         -0.4297961725       -2.5261075977        0.3453933973
 H         -0.2508783356       -2.8715694236        1.3742152905
 C         -1.3109505861       -3.5343331323       -0.3613835774
 C         -1.0895783503       -5.0001698712       -0.1453263012
 C         -2.2926730954       -4.3287496788        0.4441839874
 H         -3.2624140710       -4.5366078467        0.0172580589
 H         -2.3142470185       -4.1581020268        1.5111834490
 H         -1.2355789027       -5.6732635690       -0.9764037179
 H         -0.2938190198       -5.2910855352        0.5237647831
 H         -1.6269757727       -3.2025650693       -1.3431227832
 O         -1.2823491363       -0.8492375677       -1.8569619610
