  62
        -98.94095098
 C         -1.7340065945       -0.9580976842        0.3724200890
 C         -2.1323570653        0.4005316570        0.4308455592
 C         -3.5806179454        0.6365295463        0.5629771491
 C         -4.4186709345       -0.4090758345        0.6718176443
 C         -5.9139242562       -0.3096739716        0.7501861512
 C         -6.5474216832       -0.3736136067       -0.6467137957
 C         -5.9052376277        0.5735318335       -1.6604837691
 H         -4.8780647471        0.2528022062       -1.8491259013
 H         -6.4522640859        0.4647408564       -2.5994935403
 C         -5.9036475647        2.0493505438       -1.2380110538
 H         -6.2126923358        2.6580707895       -2.0904129584
 H         -6.6345489871        2.2086110253       -0.4443969347
 C         -4.5415000104        2.5781967649       -0.7844438867
 H         -4.6041745738        3.6678068855       -0.7186983234
 H         -3.7864079910        2.3411724421       -1.5387255131
 C         -4.0448979727        2.0657253548        0.5734986719
 H         -3.1712605286        2.6616104883        0.8546429220
 H         -4.8196140595        2.2147424769        1.3284191511
 H         -7.6104150938       -0.1437407274       -0.5545569931
 H         -6.4519180644       -1.3944074693       -1.0240556385
 H         -6.1858832815        0.6222629656        1.2419240473
 H         -6.2835033106       -1.1460641344        1.3458112738
 O         -3.9922020725       -1.6976471645        0.6785036184
 C         -2.6501296543       -2.0031188581        0.5244730719
 O         -2.3991884774       -3.2241571039        0.5508070853
 O         -1.3391814776        1.3752516382        0.3763935499
 C         -0.2804296594       -1.3643600711        0.1972858360
 C          0.6140801751       -0.5338377003        1.0826821236
 C          0.5118722283       -0.6813078068        2.4637519182
 C          1.3107203881        0.0579191621        3.3138913536
 C          2.2456617839        0.9426287665        2.8049851878
 C          2.3528437233        1.0991797081        1.4286773030
 C          1.5396991989        0.3640558425        0.5765115447
 H          1.6068930763        0.5427024357       -0.4828513432
 N          3.2876166691        1.9878332764        0.8826004908
 S          4.0097083918        1.6684542665       -0.5842441219
 O          5.2619680531        2.3938069092       -0.5313687858
 O          3.1360757109        2.0138429913       -1.6768995143
 C          4.3282668242       -0.0884250259       -0.5928939277
 C          3.8922584201       -0.8525131586       -1.6557817195
 C          4.1438834690       -2.2154136244       -1.6527127977
 C          4.8226845326       -2.7886511352       -0.5889095220
 C          5.2605704846       -2.0068587996        0.4691490660
 C          5.0142898921       -0.6436128558        0.4691209933
 H          5.3490683055       -0.0101381299        1.2741032709
 H          5.7905663116       -2.4558208448        1.2935778030
 H          5.0118778517       -3.8504731267       -0.5859028001
 H          3.8057752675       -2.8241623692       -2.4763786814
 H          3.3613826676       -0.3667310235       -2.4591630178
 H          3.9167912123        2.4202896849        1.5415368026
 H          2.8736731143        1.5196096092        3.4665232307
 H          1.2126103431       -0.0600465752        4.3825488373
 H         -0.2159789263       -1.3761121997        2.8608693083
 H         -0.2329926938       -2.4054911453        0.5569241746
 C          0.1859455986       -1.3849891601       -1.2508324647
 C         -0.7544008273       -1.7321125835       -2.3648164408
 C         -0.2228394512       -0.3371892878       -2.2399008069
 H          0.5082202898        0.0081786731       -2.9570845706
 H         -0.8868130436        0.4414992287       -1.8984560931
 H         -0.3905865316       -2.3532448715       -3.1692218179
 H         -1.7890011883       -1.9109536581       -2.1096185456
 H          1.1985059108       -1.7675675135       -1.3386109427
