  62
        -98.94144924
 C         -1.5919918989       -1.1949721798        0.1615257996
 C         -1.6644652394        0.1404184299        0.6346590502
 C         -2.7541280797        0.9637484298        0.1017821005
 C         -3.6016418594        0.4381258599       -0.8013593598
 C         -4.7433819096        1.1552942698       -1.4693617396
 C         -6.0364291197        1.1807541889       -0.6432114697
 C         -6.0138412901        2.1112793784        0.5699778107
 H         -5.6933589505        3.1058599086        0.2583564012
 H         -7.0419532002        2.1976464079        0.9271331507
 C         -5.1299281701        1.6220870982        1.7258025406
 H         -5.6730283502        1.7236687876        2.6681696206
 H         -4.9141766997        0.5590671583        1.5951686001
 C         -3.8108106104        2.3789739486        1.8806587810
 H         -4.0142489308        3.4196207784        2.1430676115
 H         -3.2521355303        1.9279648485        2.7049689509
 C         -2.9159681602        2.3557897795        0.6343208311
 H         -1.9268359604        2.7215101497        0.9218414013
 H         -3.3251094004        3.0123495397       -0.1336326287
 H         -6.8411112398        1.5043673089       -1.3074145696
 H         -6.2639566794        0.1630395987       -0.3177312902
 H         -4.4445015600        2.1760563700       -1.7093122591
 H         -4.9415862794        0.6217338501       -2.4013899998
 O         -3.4947569189       -0.8420477899       -1.2395108204
 C         -2.4996396887       -1.6953897697       -0.7734180307
 O         -2.5495065082       -2.8342260795       -1.2707800412
 O         -0.8492724597        0.6221467699        1.4669927505
 C         -0.4560585286       -2.0429040096        0.7068450993
 C          0.7522045314       -1.8954052188       -0.1822805605
 C          0.6906361516       -2.2036041482       -1.5389390006
 C          1.8025402316       -2.0402651775       -2.3436532205
 C          2.9848175114       -1.5435883573       -1.8211165602
 C          3.0519988112       -1.2194512378       -0.4720318000
 C          1.9415907612       -1.4110721786        0.3402852298
 H          2.0101951510       -1.1527146290        1.3861495999
 N          4.2336048209       -0.7020654277        0.0882769603
 S          4.1439524403        0.7067755819        0.9944859909
 O          5.5154101802        1.1560633324        1.0961905612
 O          3.4682138303        0.4479141211        2.2383794908
 C          3.2176582200        1.8302604020       -0.0353145786
 C          1.8414035500        1.8864500915        0.0500722813
 C          1.1546127798        2.7081050816       -0.8311094184
 C          1.8452147396        3.4560826523       -1.7709873780
 C          3.2291928596        3.3928889828       -1.8382353380
 C          3.9220297498        2.5679171627       -0.9684712383
 H          4.9974652698        2.4924434031       -0.9818275482
 H          3.7661753194        3.9793430333       -2.5662328877
 H          1.3012678794        4.0923017324       -2.4513047378
 H          0.0778587297        2.7478473312       -0.7725018885
 H          1.3119492801        1.3066551610        0.7902029810
 H          5.0022635209       -0.6414985871       -0.5649213596
 H          3.8489615914       -1.4066975867       -2.4532880900
 H          1.7456973918       -2.2913077870       -3.3920185906
 H         -0.2376936782       -2.5716749484       -1.9495465009
 H         -0.2038779989       -1.5836958100        1.6765055496
 C         -0.8431592281       -3.4889510099        0.9807208087
 C         -0.2472712677       -4.6616378294        0.2667095382
 C          0.1249300121       -4.3890245299        1.6910329083
 H         -0.2456569477       -5.0459045803        2.4633836380
 H          1.1127915420       -3.9958318996        1.8825757786
 H         -0.8986326773       -5.4942750095        0.0490858978
 H          0.4934807823       -4.4790317188       -0.4952379817
 H         -1.8869953981       -3.5837564004        1.2615131985
