  62
        -98.93513713
 C          1.6952648399        0.0066873788        0.8407180006
 C          2.8821073299        0.7745410087        0.7950468509
 C          4.1249699099        0.0514134488        0.4594027508
 C          4.0785683999       -1.2622771512        0.1739228105
 C          5.1723385099       -2.2498548511       -0.1757113296
 C          6.5656081199       -1.7679681411       -0.5718892493
 C          6.6312867701       -1.0217203708       -1.9041709992
 H          7.6467478901       -0.6400608608       -2.0315619490
 H          6.4403512401       -1.7337580706       -2.7110667094
 C          5.6434982801        0.1311672493       -2.0654217290
 H          4.6217783901       -0.2534761907       -2.0403341292
 H          5.7981015402        0.5670863895       -3.0562666589
 C          5.7759224301        1.2539743790       -1.0385596288
 H          5.1283140502        2.0733949691       -1.3619944586
 H          6.8029433901        1.6243031490       -1.0279713586
 C          5.3720691700        0.8863203687        0.3995119311
 H          6.1866640099        0.3961584586        0.9270034111
 H          5.1472217899        1.8145082286        0.9328034113
 H          7.1883880499       -2.6619777511       -0.6647636095
 H          6.9969164599       -1.1668434913        0.2231619108
 H          4.7655812999       -2.8686811109       -0.9818458398
 H          5.2690908398       -2.9060297513        0.6963346003
 O          2.9053838098       -1.9596531311        0.2106282403
 C          1.7073486398       -1.3589444811        0.5423548103
 O          0.7310056198       -2.1351495711        0.5400571700
 O          2.9373440899        2.0125417787        1.0239700312
 C          0.3304308199        0.5737647688        1.1920674106
 C         -0.3395249200        1.2317989691        0.0093953207
 C          0.2677763501        2.2640879392       -0.6970532990
 C         -0.3894016798        2.8660735095       -1.7542736190
 C         -1.6689702698        2.4738069196       -2.1071941792
 C         -2.2870863799        1.4483123095       -1.4024155694
 C         -1.6114594300        0.8238633792       -0.3638235695
 H         -2.0880641101        0.0120843491        0.1640082603
 N         -3.5835907999        1.0240724496       -1.7269917996
 S         -4.6586385800        0.6411578294       -0.5008981498
 O         -5.9653399699        0.8205522296       -1.0966482199
 O         -4.3929944801        1.4049786891        0.6951734204
 C         -4.3971342301       -1.0930958907       -0.2001444302
 C         -4.4945791900       -1.9650894905       -1.2661229104
 C         -4.3094007201       -3.3194205005       -1.0411557507
 C         -4.0331426202       -3.7766311508        0.2385614093
 C         -3.9431981203       -2.8889618511        1.2992705295
 C         -4.1279672802       -1.5331743010        1.0803466997
 H         -4.0627431703       -0.8082532612        1.8770386499
 H         -3.7262896104       -3.2459151413        2.2934163994
 H         -3.8856738803       -4.8309349609        0.4117940490
 H         -4.3783402101       -4.0144504603       -1.8624506508
 H         -4.7140983299       -1.5724261702       -2.2449488303
 H         -4.0292526798        1.5460785798       -2.4674514696
 H         -2.1866255897        2.9576640398       -2.9217693891
 H          0.0937778003        3.6618422196       -2.3011866987
 H          1.2548483601        2.5898595591       -0.4076705589
 H         -0.2840403402       -0.2926881413        1.4729268604
 C          0.3515725498        1.5405630785        2.3626586408
 C         -0.9467608502        1.9093888884        3.0133908508
 C          0.0356093297        1.0395447682        3.7378794807
 H          0.5741876996        1.4574049480        4.5752823208
 H         -0.1953636304       -0.0102882518        3.8471791304
 H         -1.0792876502        2.9258482784        3.3518849010
 H         -1.8512308302        1.4628460986        2.6258558406
 H          1.1037358298        2.3122876185        2.2678362011
