  62
        -98.94132357
 C         -2.3575032214       -1.0880686900       -0.5871262980
 C         -3.5559890964       -0.7735816507        0.1060909344
 C         -4.1885769945        0.5038925884       -0.2351497053
 C         -3.6254038226        1.2978928794       -1.1634907560
 C         -4.1551567124        2.6248190823       -1.6348590720
 C         -3.7628980723        3.8062321660       -0.7369554096
 C         -4.4884711303        3.8699450156        0.6076742777
 H         -4.2862650007        4.8545015721        1.0340030535
 H         -5.5641237536        3.8006035542        0.4427256125
 C         -4.0500639620        2.7980958901        1.6155760282
 H         -3.0909278051        2.3751562865        1.3055581363
 H         -3.8906793260        3.2604432157        2.5924575608
 C         -5.0541817706        1.6618666229        1.8111747313
 H         -5.9718951351        2.0567058039        2.2525810142
 H         -4.6236862459        0.9434216356        2.5134084342
 C         -5.4156812434        0.9088411093        0.5243492385
 H         -5.9516458598       -0.0025554316        0.8000705262
 H         -6.0644303893        1.5218635663       -0.1007750923
 H         -2.6838111411        3.7734701213       -0.5670623779
 H         -3.9845617108        4.7226479269       -1.2887888531
 H         -3.7339067779        2.7926669040       -2.6283406822
 H         -5.2410297769        2.5762839451       -1.7205849584
 O         -2.4823760015        0.9589177843       -1.8137199693
 C         -1.8091068497       -0.2221222652       -1.5332655380
 O         -0.7677844328       -0.3677239645       -2.2045288491
 O         -4.0774865271       -1.5334037002        0.9647130692
 C         -1.6719830063       -2.3957573443       -0.2218353069
 C         -0.4863139028       -2.0974576054        0.6640604163
 C         -0.5976623519       -2.2129940219        2.0456530728
 C          0.4641841532       -1.8832561846        2.8690144202
 C          1.6565689750       -1.4271485360        2.3350066527
 C          1.7717808711       -1.2948607652        0.9575706264
 C          0.7113414190       -1.6415605474        0.1324460903
 H          0.8020804775       -1.5118420203       -0.9352656123
 N          2.9787031987       -0.8191599114        0.3924085030
 S          3.4516549453        0.7326941060        0.8699328035
 O          3.7977342616        0.6956666069        2.2682645176
 O          2.4487580471        1.7070811149        0.4926637655
 C          4.9231172121        0.9389692802       -0.1124889835
 C          6.1190823023        0.4435412343        0.3702470102
 C          7.2587931114        0.5710189134       -0.4075265708
 C          7.1832679993        1.1860677540       -1.6483453075
 C          5.9752111208        1.6775855360       -2.1196501924
 C          4.8312581963        1.5525263377       -1.3469200706
 H          3.8726545886        1.9269716296       -1.6705321156
 H          5.9188238867        2.1563676959       -3.0840975369
 H          8.0712277674        1.2844235095       -2.2526072184
 H          8.2002031010        0.1912242425       -0.0448561686
 H          6.1296989699       -0.0194701704        1.3428858485
 H          2.9147352786       -0.8220185829       -0.6188133644
 H          2.4835368343       -1.1473947326        2.9665035549
 H          0.3628373982       -1.9793353797        3.9396633820
 H         -1.5340859770       -2.5460807093        2.4703070828
 H         -2.4088506162       -2.9450642437        0.3793118050
 C         -1.3104437518       -3.2386392854       -1.4274008002
 C         -0.9991948318       -4.6909881064       -1.2292894507
 C         -2.2732574536       -4.2827955332       -1.9040964797
 H         -2.3709577930       -4.4447557484       -2.9670716228
 H         -3.1990732926       -4.3950997205       -1.3590888298
 H         -0.2197531004       -5.1371118171       -1.8274639885
 H         -1.0602761845       -5.0800975817       -0.2242585017
 H         -0.7542589082       -2.7008696449       -2.1839873141
