  62
        -98.93784170
 C         -1.2241068799       -0.9731490105        0.2908542502
 C         -1.6487641300        0.1680602690        1.0132241308
 C         -2.6841346001        1.0066486092        0.3869636412
 C         -3.1079919001        0.6986158299       -0.8505069790
 C         -4.1791998901        1.3841943502       -1.6530096186
 C         -5.5443169001        0.7110228798       -1.4294860590
 C         -6.3402513202        1.2452221791       -0.2393197987
 H         -6.6970892103        2.2512201791       -0.4696002982
 H         -7.2174027101        0.6048028389       -0.1219094191
 C         -5.5811392202        1.2876830484        1.0892407313
 H         -6.3171663002        1.3203016679        1.8947304413
 H         -5.0062167101        0.3681964184        1.2132155108
 C         -4.6519607504        2.5042996985        1.2154255820
 H         -4.8817669705        3.2141712389        0.4211093824
 H         -4.8538054205        3.0183843679        2.1574863623
 C         -3.1508981503        2.1827751187        1.2011164619
 H         -2.5965324204        3.0699780990        0.8744410124
 H         -2.8155029903        1.9662775182        2.2205194318
 H         -6.1501764501        0.8434012202       -2.3281267089
 H         -5.3723961499       -0.3614844402       -1.3068245596
 H         -4.2178522603        2.4439846900       -1.4185012280
 H         -3.8999828901        1.2687098808       -2.7026088087
 O         -2.6177214499       -0.3636916497       -1.5453605595
 C         -1.6607737798       -1.2136221298       -1.0125135600
 O         -1.2975227496       -2.1144029294       -1.7913333705
 O         -1.1785634901        0.4771300185        2.1422112710
 C         -0.1493830297       -1.8422791307        0.9173871197
 C          1.0248062703       -1.9740684100       -0.0211795403
 C          1.6784765905       -3.1676224898       -0.2963104110
 C          2.7696099305       -3.1841155591       -1.1489203110
 C          3.2447573203       -2.0200173287       -1.7242633103
 C          2.5947509002       -0.8199277690       -1.4566988097
 C          1.4968011201       -0.8104691696       -0.6144227397
 H          0.9776355100        0.1195428702       -0.4416990992
 N          3.0318950200        0.3874622414       -2.0194473390
 S          2.8461600798        1.8196881709       -1.1819878582
 O          1.4703813097        2.2518968207       -1.2111914180
 O          3.7992241597        2.7160203314       -1.8019547677
 C          3.3657910998        1.4510614400        0.4850131116
 C          4.7022963598        1.1589133501        0.6809697115
 C          5.1388269699        0.8232731895        1.9514759313
 C          4.2340517898        0.7796417288        3.0017832013
 C          2.8982017298        1.0820152687        2.7911213614
 C          2.4563146398        1.4229253593        1.5220045216
 H          1.4198806197        1.6582816393        1.3347206717
 H          2.1872128498        1.0489671381        3.6014442214
 H          4.5705944199        0.5112636783        3.9906961211
 H          6.1787241299        0.5937152495        2.1187530812
 H          5.3763081198        1.2135384907       -0.1583353585
 H          3.9049923100        0.3423592418       -2.5226058390
 H          4.0971580204       -2.0373883483       -2.3856291903
 H          3.2620395506       -4.1201226189       -1.3645290515
 H          1.3243568906       -4.0880488301        0.1375304085
 H          0.1960164602       -1.2502816111        1.7829697000
 C         -0.6410107396       -3.1691597711        1.4768711089
 C         -2.0929922895       -3.4039441615        1.7654643988
 C         -1.4201074694       -4.1504287807        0.6548713284
 H         -1.2240567993       -5.2038012508        0.7932011578
 H         -1.6487072894       -3.8751263202       -0.3623099115
 H         -2.3583740595       -3.9397445520        2.6646289285
 H         -2.7889248996       -2.6202633514        1.5017875492
 H          0.0574902705       -3.5888019314        2.1942534587
