  62
        -98.94248073
 C         -2.7889059832       -0.7710026707        0.4130558382
 C         -2.6369475135       -0.0355048389       -0.7874410091
 C         -3.0222223447        1.3817343599       -0.7222964206
 C         -3.4962618229        1.8849328476        0.4321565378
 C         -3.8789671470        3.3195936326        0.6502894748
 C         -2.6923520111        4.1374051454        1.1790140440
 C         -1.4028750537        3.9455091377        0.3800159420
 H         -0.6431002157        4.5935176006        0.8225428571
 H         -1.0492540814        2.9183643980        0.5010266322
 C         -1.5296039026        4.2584652020       -1.1172278273
 H         -0.6631104971        4.8480345019       -1.4237765760
 H         -2.4180497960        4.8655774032       -1.2958963832
 C         -1.5670517331        3.0253823502       -2.0222499760
 H         -0.7237457882        2.3703849521       -1.7822530264
 H         -1.4330789316        3.3583043978       -3.0552098593
 C         -2.8589506696        2.1989254853       -1.9724527488
 H         -3.7194665046        2.8542443602       -2.1223607032
 H         -2.8237793646        1.4805901491       -2.7968503393
 H         -2.9700194278        5.1928316822        1.1726987415
 H         -2.5006594580        3.8420680583        2.2131458782
 H         -4.2350592897        3.7409122733       -0.2875674408
 H         -4.6860145481        3.3520176338        1.3840779661
 O         -3.6360625811        1.1441673063        1.5614774818
 C         -3.2676619297       -0.1919495424        1.5870505839
 O         -3.4068945551       -0.7440566492        2.6976510238
 H         -0.3482564227       -0.7385598523        1.2637862583
 C         -0.0156256037       -1.4879077079        0.5539723808
 C         -0.9450155078       -2.3746879078        0.0253160707
 C         -0.5017955826       -3.3330495699       -0.8762450989
 C          0.8284714265       -3.3745285633       -1.2567755206
 C          1.7446833509       -2.4745498294       -0.7444842506
 C          1.3157994653       -1.5227853817        0.1708845751
 N          2.2390148101       -0.6058912130        0.7182575539
 S          3.0271482931        0.4716760003       -0.3135636072
 O          2.5791385047        1.8111992368        0.0052082054
 O          2.8786704988        0.0494635546       -1.6841104893
 C          4.7331513064        0.2958123691        0.1785985067
 C          5.2455674507       -0.9736527193        0.3599229995
 C          6.5767441221       -1.1154183477        0.7179579415
 C          7.3711748719        0.0086795210        0.8869558724
 C          6.8422322496        1.2767230192        0.7036032268
 C          5.5109100975        1.4244970397        0.3457689830
 H          5.0567616003        2.3910531988        0.1989751686
 H          7.4596905297        2.1502829672        0.8380757782
 H          8.4070041734       -0.1045347393        1.1653271133
 H          6.9886510604       -2.1008364930        0.8652175460
 H          4.5975615585       -1.8245061175        0.2297267796
 H          1.8400003218       -0.0702957732        1.4769431774
 H          2.7718386488       -2.4830513906       -1.0700702761
 H          1.1554137851       -4.1160572963       -1.9698538313
 H         -1.2013433076       -4.0372827257       -1.2957356793
 C         -2.3859061408       -2.2344540656        0.4542823173
 H         -2.4658907316       -2.5453439207        1.5064106393
 C         -3.3462354411       -3.0626604984       -0.3738080220
 C         -3.6193238169       -4.4911281336       -0.0130843950
 C         -4.6664903364       -3.4455145569        0.2218744520
 H         -5.5404043524       -3.4354067830       -0.4119573993
 H         -4.8603111729       -3.1300404230        1.2369406325
 H         -3.1078750073       -4.8964160254        0.8467733734
 H         -3.7786041491       -5.2025179074       -0.8093199977
 H         -3.3300940800       -2.7899763552       -1.4229251652
 O         -2.2017159803       -0.5348911814       -1.8578654439
