  62
        -98.94039987
 C         -2.4842423261       -1.2540803154        0.0847051360
 C         -3.4173862836       -0.7169290918        1.0108627733
 C         -4.4451145676        0.1777326548        0.4650928205
 C         -4.4609265322        0.4262389619       -0.8567164427
 C         -5.4201451081        1.3520786974       -1.5456442380
 C         -4.8584587924        2.7786365018       -1.6229710642
 C         -4.3225265538        3.3047659300       -0.2913618347
 H         -3.4470931051        2.7184116899       -0.0021951359
 H         -3.9813885054        4.3284246057       -0.4603618598
 C         -5.3436242473        3.2885750484        0.8548037419
 H         -5.2866650786        4.2401773650        1.3873507028
 H         -6.3529446575        3.2036933410        0.4505453190
 C         -5.1177725620        2.1849400157        1.8899523940
 H         -5.7494846183        2.3974353635        2.7564459150
 H         -4.0789799654        2.2071865498        2.2289322206
 C         -5.4427154885        0.7592737252        1.4267546663
 H         -6.4482501658        0.7303923381        1.0020664511
 H         -5.4219047865        0.1106734269        2.3073172833
 H         -5.6465353438        3.4401503542       -1.9872862304
 H         -4.0423916639        2.7904250401       -2.3493551948
 H         -5.5884124587        0.9817036372       -2.5583365969
 H         -6.3658474640        1.3513693683       -1.0071074412
 O         -3.5611846841       -0.1120253401       -1.7166911717
 C         -2.5454270960       -0.9530492796       -1.2763005880
 O         -1.7943499311       -1.3408457132       -2.1920612416
 O         -3.3940674363       -0.9853667039        2.2414698776
 C         -1.4341798142       -2.1929724717        0.6522302561
 C         -0.1384121235       -1.4816138939        0.9459465180
 C          0.4922877139       -1.6241486896        2.1761804673
 C          1.7008170947       -0.9969819388        2.4254830094
 C          2.3043822017       -0.2181852934        1.4545260469
 C          1.6807812299       -0.0667888929        0.2229119269
 C          0.4680241513       -0.6930229028       -0.0224143420
 H         -0.0049905424       -0.5830711035       -0.9877612610
 N          2.2953846134        0.7204990955       -0.7740143168
 S          3.7927782129        0.1637731520       -1.3101963919
 O          3.9569413434        0.7127301395       -2.6381907782
 O          3.8889668185       -1.2732166361       -1.1902994717
 C          4.9544967567        0.9455563628       -0.2106776378
 C          5.7942560019        0.1723367649        0.5667920616
 C          6.6943365648        0.8034425709        1.4114938057
 C          6.7384014667        2.1883147620        1.4626988157
 C          5.8897866717        2.9503418532        0.6731199984
 C          4.9885590447        2.3259849925       -0.1743559838
 H          4.3151921486        2.8789562959       -0.8078881995
 H          5.9276194783        4.0269530826        0.7153980471
 H          7.4387819448        2.6770624231        2.1214281513
 H          7.3552695530        0.2130476457        2.0254821032
 H          5.7193372877       -0.9009837145        0.4967264570
 H          1.6941498400        0.8709305297       -1.5729296068
 H          3.2457115318        0.2721871505        1.6415201920
 H          2.1786187679       -1.1162056770        3.3857026993
 H          0.0242505767       -2.2260494501        2.9413440285
 H         -1.8536600827       -2.5228492899        1.6158965963
 C         -1.2318237069       -3.4394782494       -0.2008709757
 C          0.0118841116       -3.7277946823       -0.9823572690
 C         -0.2937668045       -4.5189362935        0.2520699268
 H         -0.5986881987       -5.5489780090        0.1472620429
 H          0.3056867444       -4.3201101413        1.1276115863
 H         -0.1043373792       -4.1984635389       -1.9470720907
 H          0.8256989804       -3.0192455843       -0.9489905962
 H         -2.1616712914       -3.7669421884       -0.6559747726
