  62
        -98.93471632
 C         -2.6568616304       -0.9797954059        0.7562827458
 C         -2.9113833787        0.2953043833        1.3244257181
 C         -4.2199707601        0.8932005826        1.0353072374
 C         -5.0970009552        0.2111352382        0.2768437086
 C         -6.4436720844        0.7203043310       -0.1466973241
 C         -6.3605114162        1.4547161585       -1.4922309864
 C         -5.2419326566        2.4945967843       -1.5611118517
 H         -4.2767252812        1.9852991737       -1.5067736900
 H         -5.2986964654        2.9683168945       -2.5436322620
 C         -5.3082453179        3.5719935398       -0.4695351630
 H         -5.1340734109        4.5469921650       -0.9294907778
 H         -6.3067175139        3.5942588140       -0.0313610754
 C         -4.2703072378        3.4126897723        0.6430129209
 H         -3.2766522213        3.2945361149        0.2030309114
 H         -4.2599274998        4.3333125781        1.2326127174
 C         -4.5079811508        2.2495807325        1.6143196329
 H         -5.5281933408        2.2951714890        2.0007664060
 H         -3.8159208276        2.3700134484        2.4528785990
 H         -6.1897847278        0.7167168385       -2.2794548690
 H         -7.3208721072        1.9376529966       -1.6818356359
 H         -7.1174121996       -0.1320334438       -0.2491940755
 H         -6.8314676492        1.3877615443        0.6204198582
 O         -4.8294570197       -1.0153705717       -0.2344681589
 C         -3.6022436646       -1.6385739482       -0.0310740043
 O         -3.5085522305       -2.7446519171       -0.5925287406
 O         -2.0775245172        0.9017546228        2.0501231419
 C         -1.2920910995       -1.5810851803        1.0407141481
 C         -0.3053679798       -1.1717027405       -0.0236360147
 C         -0.5749919188       -1.3769705626       -1.3732055445
 C          0.3409745021       -0.9925188898       -2.3354571937
 C          1.5339812050       -0.3893221486       -1.9770033288
 C          1.8106704017       -0.1738611730       -0.6336755953
 C          0.8940429424       -0.5733999939        0.3323333490
 H          1.1065435940       -0.3952334967        1.3778946589
 N          3.0043050282        0.4679061445       -0.2583508366
 S          4.4294345554       -0.0023862023       -1.0352341231
 O          4.4742579166        0.6274298567       -2.3306022373
 O          4.5434871186       -1.4438176052       -1.0288625310
 C          5.6491712974        0.7291694571        0.0367696924
 C          6.2994109230       -0.0588166358        0.9671516654
 C          7.2269100140        0.5302715106        1.8122601055
 C          7.4834114344        1.8896211663        1.7152811933
 C          6.8226798090        2.6672077147        0.7755411689
 C          5.8956624236        2.0846307275       -0.0736878705
 H          5.3648233590        2.6472073654       -0.8237603072
 H          7.0269790080        3.7231682787        0.7019177804
 H          8.2050330244        2.3456117705        2.3745697376
 H          7.7445934128       -0.0717646687        2.5415670576
 H          6.0735497087       -1.1126062060        1.0020749425
 H          3.1287922990        0.4824246633        0.7449871381
 H          2.2534267900       -0.0871572619       -2.7207083386
 H          0.1231951694       -1.1617774640       -3.3796770236
 H         -1.5064828270       -1.8436634008       -1.6574027201
 H         -0.9727214014       -1.1067541155        1.9824942451
 C         -1.3241438626       -3.0830186737        1.2834081443
 C         -0.7404162287       -4.0934407291        0.3470148889
 C         -0.0625748558       -3.8074110146        1.6512322131
 H         -0.0996386026       -4.5516879225        2.4320560795
 H          0.8599532240       -3.2468731373        1.6161404764
 H         -1.2710297656       -5.0253606027        0.2260772500
 H         -0.2693936052       -3.7439795104       -0.5582135100
 H         -2.2259678314       -3.3856119343        1.8058203485
