  62
        -98.93984770
 C         -2.6360015262       -1.3305614594        0.3237287857
 C         -2.8853352895       -0.5233165952       -0.8137193908
 C         -3.8968515123        0.5301258839       -0.6390310545
 C         -4.5192570363        0.6822013736        0.5429555536
 C         -5.5761250938        1.7027801111        0.8669883613
 C         -5.0158382317        3.0756880115        1.2632972737
 C         -4.4218643594        3.8924869140        0.1149979292
 H         -5.1449216401        3.9520379169       -0.6991121268
 H         -4.2684267752        4.9066056009        0.4891479497
 C         -3.0858036228        3.3575763651       -0.4194469253
 H         -2.6499703592        2.6698652819        0.3092928344
 H         -2.3830434343        4.1855416119       -0.5376984971
 C         -3.1833829645        2.6504146851       -1.7713003004
 H         -3.4977475265        3.3637629482       -2.5365035391
 H         -2.1886631285        2.2866962886       -2.0421263570
 C         -4.1462649133        1.4559595775       -1.7918993737
 H         -5.1783580891        1.8054120799       -1.7822108102
 H         -3.9749756604        0.8941572625       -2.7135825942
 H         -4.2597589710        2.9335317428        2.0388580234
 H         -5.8369190304        3.6484327823        1.7003448373
 H         -6.2512051420        1.8147364057        0.0181426976
 H         -6.1422588342        1.3049944807        1.7118998777
 O         -4.2572606798       -0.1171314389        1.6104980632
 C         -3.3105498096       -1.1232271350        1.5314604786
 O         -3.1649529732       -1.7685909896        2.5885677452
 H         -0.2965192526       -0.4415414795       -0.8539361985
 C          0.2951893574       -0.9087550181       -0.0801282423
 C         -0.2391670545       -1.9726534946        0.6337819814
 C          0.5422489937       -2.5756900125        1.6119675955
 C          1.8254556142       -2.1229643414        1.8654914415
 C          2.3528598735       -1.0610040019        1.1530482858
 C          1.5802920172       -0.4511514161        0.1730894386
 N          2.1023725935        0.6367672262       -0.5496489624
 S          3.5990434661        0.4344624401       -1.2864689798
 O          3.6185979988        1.3834239512       -2.3776865269
 O          3.8336636939       -0.9485747654       -1.6321539230
 C          4.7589604962        0.9585856568       -0.0415569074
 C          4.5991473858        2.2152728153        0.5088053159
 C          5.4975918986        2.6419102322        1.4736235266
 C          6.5363176985        1.8110292226        1.8669659348
 C          6.6854517721        0.5538612844        1.3017253174
 C          5.7893583451        0.1204062304        0.3367950742
 H          5.8613370109       -0.8510480558       -0.1257237359
 H          7.4936966665       -0.0902481923        1.6086904293
 H          7.2334580186        2.1456156628        2.6188654480
 H          5.3847263377        3.6187469086        1.9156854079
 H          3.7803617179        2.8300639158        0.1738145365
 H          1.4417647751        1.0316909632       -1.2040054074
 H          3.3511405905       -0.7040124271        1.3466671464
 H          2.4213568446       -2.6003228119        2.6282250713
 H          0.1332976968       -3.3979035567        2.1808354527
 C         -1.6301789367       -2.4706658853        0.3348925116
 H         -1.9372563741       -3.1139909805        1.1743011137
 C         -1.6911533193       -3.3204654355       -0.9289587255
 C         -0.5986456724       -3.3792212980       -1.9501633460
 C         -0.8392900275       -4.5495050545       -1.0473868104
 H         -1.2759031386       -5.4455028918       -1.4616931801
 H         -0.1164228099       -4.7291384598       -0.2657986707
 H          0.2904777114       -2.7876283522       -1.7935695206
 H         -0.8891832476       -3.4510130352       -2.9874323694
 H         -2.7037028972       -3.3957111923       -1.3127111278
 O         -2.3066944137       -0.6515426537       -1.9245052787
