  62
        -98.94012398
 C         -1.9228795489       -1.5201898965       -0.0250834478
 C         -1.7246969851       -0.2266620865       -0.5549685100
 C         -2.9205551916        0.6304090502       -0.6850281104
 C         -4.1178094833        0.1307949411       -0.3256781227
 C         -5.4581868528        0.8168420561       -0.3402454172
 C         -5.6298049544        1.8078661581        0.8218187034
 C         -4.4287264961        2.7153398778        1.0734898022
 H         -4.6362085663        3.2965687133        1.9758260656
 H         -3.5516107028        2.0992986717        1.2795938792
 C         -4.1086176030        3.6971552612       -0.0512835897
 H         -4.9826843853        4.3246128829       -0.2388525517
 H         -3.3050083220        4.3463562265        0.3053214021
 C         -3.6620803156        3.0752001905       -1.3767085747
 H         -4.5101781572        2.6947235551       -1.9396735658
 H         -3.2243676957        3.8753390602       -1.9807675379
 C         -2.5938510155        1.9947289355       -1.2430101670
 H         -2.1567833265        1.8098783592       -2.2317210996
 H         -1.7693969611        2.3787353949       -0.6313068927
 H         -5.8095777300        1.2320038302        1.7330358193
 H         -6.5151167908        2.4158125314        0.6276423037
 H         -5.6161044714        1.3093069398       -1.2951009944
 H         -6.2119939865        0.0324629336       -0.2421484415
 O         -4.2617165845       -1.1342979004        0.1656361226
 C         -3.1865909878       -1.9826802556        0.3380227557
 O         -3.4747303958       -3.0987000826        0.8161770389
 H          1.9600004928       -2.0699585687       -0.3720611202
 C          1.6418779231       -1.6793717610        0.5794056756
 C          0.3222081796       -1.7857682005        0.9877406515
 C         -0.0359789757       -1.2629706492        2.2287265533
 C          0.8984149108       -0.6372508562        3.0300758031
 C          2.2108645932       -0.5111699051        2.6074403410
 C          2.5806540101       -1.0352859602        1.3757421938
 N          3.9120306699       -0.9455193802        0.9258891843
 S          4.2452549018       -0.2067928251       -0.5402581683
 O          3.5727036697       -0.9013029191       -1.6061359183
 O          5.6904233173       -0.1744394310       -0.6106838945
 C          3.6282407828        1.4579993213       -0.3621291418
 C          4.5281613699        2.4567521617       -0.0408068048
 C          4.0620566941        3.7458992103        0.1561846467
 C          2.7062207015        4.0126560207        0.0372456884
 C          1.8178721796        2.9978147616       -0.2809572887
 C          2.2753510581        1.7042387654       -0.4830796111
 H          1.5905763387        0.9082570579       -0.7300241392
 H          0.7618032071        3.1948790394       -0.3758969618
 H          2.3397284795        5.0153620025        0.1919995833
 H          4.7535010078        4.5357520390        0.4021672227
 H          5.5732843917        2.2032269057        0.0359323764
 H          4.5523365863       -0.5928907413        1.6239661324
 H          2.9419101732       -0.0149025120        3.2277299035
 H          0.6030860601       -0.2367980750        3.9881520355
 H         -1.0642522932       -1.3533579020        2.5531068798
 C         -0.7398027472       -2.4547357774        0.1500104401
 H         -1.1187499992       -3.3252252716        0.7055867958
 C         -0.2409393738       -2.9227630846       -1.2010919166
 C          0.4455959800       -4.2479123337       -1.3316348947
 C         -0.9377686889       -4.0629986098       -1.8775943779
 H         -1.0703983632       -4.0246111821       -2.9485004205
 H         -1.7629149406       -4.5209451074       -1.3512600878
 H          1.2668425996       -4.3341316631       -2.0274318743
 H          0.5622435625       -4.8408812682       -0.4369862300
 H          0.1055497744       -2.1083354271       -1.8280115896
 O         -0.5962671893        0.2107594880       -0.9015087523
