  62
        -98.94429192
 C         -1.7770067991       -1.2693858682        0.2648869386
 C         -1.3450017753       -0.1786547139       -0.5217403578
 C         -1.8969766765        1.1442256249       -0.1824854787
 C         -2.7798222888        1.2359241981        0.8289165538
 C         -3.4989244704        2.4716262825        1.2948647745
 C         -4.6592417830        2.8706162450        0.3606456510
 C         -4.4087624343        2.6414676414       -1.1294028062
 H         -5.3607497369        2.7722689280       -1.6506508154
 H         -4.0955755373        1.6071415989       -1.2835849997
 C         -3.3930984773        3.5824222788       -1.7740373878
 H         -3.7966838632        4.5978674951       -1.7664648748
 H         -3.2752966742        3.2779674184       -2.8168719817
 C         -2.0128335211        3.6203168424       -1.1200026336
 H         -2.0677446294        4.1099054665       -0.1511537065
 H         -1.3688606487        4.2442260387       -1.7473292381
 C         -1.3094286336        2.2704150200       -0.9961768333
 H         -0.3078322894        2.4408317742       -0.5781448200
 H         -1.1517165503        1.8570713771       -1.9985270106
 H         -4.9009260164        3.9201278150        0.5346045074
 H         -5.5299189284        2.2731796306        0.6404726658
 H         -2.7825765949        3.2809421751        1.4094346808
 H         -3.9068015588        2.2497725285        2.2834651180
 O         -3.1894675997        0.1527011687        1.5480035683
 C         -2.6772906899       -1.1092859194        1.3147985690
 O         -3.0978020126       -1.9935749276        2.0909911626
 O         -0.5304381373       -0.3045243837       -1.4751841144
 C         -1.2005870298       -2.6506448208        0.0157413965
 C          0.3084363144       -2.5923926097        0.0239178866
 C          1.0999838955       -3.3466691847       -0.8341156861
 C          2.4795788269       -3.2400823066       -0.7952160572
 C          3.0974623737       -2.3641395055        0.0784623572
 C          2.3146889813       -1.6129892751        0.9469884936
 C          0.9373073446       -1.7553454211        0.9368718055
 H          0.3471936060       -1.1647795520        1.6230622753
 N          2.8876142819       -0.6818417256        1.8406445367
 S          2.5224215166        0.9330167913        1.5676872659
 O          3.2897251948        1.6621048151        2.5559978409
 O          1.0966659322        1.1310911036        1.5967483102
 C          3.1908024474        1.2634546812       -0.0536643037
 C          4.4478146937        1.8323294400       -0.1387848405
 C          5.0137775135        2.0295708321       -1.3873634739
 C          4.3196953116        1.6462775430       -2.5254568795
 C          3.0620397222        1.0732058578       -2.4215877039
 C          2.4861021021        0.8746920279       -1.1752202218
 H          1.5050604698        0.4347304814       -1.0770204131
 H          2.5161456371        0.7725036459       -3.3013783075
 H          4.7602335415        1.7953230121       -3.4986802063
 H          5.9911424674        2.4773376273       -1.4687575753
 H          4.9463609738        2.1170756538        0.7738343185
 H          3.8905663861       -0.7754450130        1.9321504273
 H          4.1718727116       -2.2580557249        0.0897653063
 H          3.0800434783       -3.8324629553       -1.4684384993
 H          0.6342353926       -4.0153218810       -1.5395742165
 H         -1.5292594690       -3.2760106866        0.8594263739
 C         -1.7652635936       -3.2267451883       -1.2680715080
 C         -1.9945846475       -4.7013294022       -1.4055819493
 C         -3.1607534839       -3.7718700355       -1.2601789393
 H         -3.7906686445       -3.5915049993       -2.1183107200
 H         -3.6909377757       -3.7540705483       -0.3187462940
 H         -1.8277668626       -5.1620393116       -2.3676444129
 H         -1.7420465199       -5.3283998031       -0.5638729742
 H         -1.4498978865       -2.6713051698       -2.1439958429
