  62
        -98.94155012
 C         -2.7464081224       -1.3024057260       -0.0783432062
 C         -2.5416396183       -0.1847353341       -0.9232414620
 C         -3.5876701486        0.8481578507       -0.8829076183
 C         -4.6573221965        0.6767183739       -0.0851909727
 C         -5.7630307902        1.6749191077        0.0959067518
 C         -5.4653286710        2.6245150872        1.2648238745
 C         -4.0644806803        3.2357144771        1.2240185828
 H         -3.9790853896        3.9112875567        2.0779180585
 H         -3.3231550025        2.4455251772        1.3663490099
 C         -3.7431322853        4.0020630469       -0.0666894314
 H         -3.2582761429        4.9443098637        0.1971006822
 H         -4.6669032269        4.2481760621       -0.5916374710
 C         -2.7986186969        3.2697220757       -1.0219740262
 H         -2.4684009393        3.9801777611       -1.7848829046
 H         -1.9079351015        2.9403677991       -0.4790965252
 C         -3.3950098670        2.0591838821       -1.7515373020
 H         -4.3334412176        2.3445007525       -2.2313307168
 H         -2.6866698699        1.7608193474       -2.5301535957
 H         -6.2112002039        3.4212693947        1.2609549166
 H         -5.5673233627        2.0669882764        2.1986341102
 H         -6.6856346940        1.1317545956        0.3068340609
 H         -5.8882472209        2.2421437908       -0.8241827518
 O         -4.8285883075       -0.4196395319        0.6962348478
 C         -3.8731988258       -1.4201756385        0.7380473063
 O         -4.1384272234       -2.3513036943        1.5241221342
 O         -1.5431538168       -0.0487268299       -1.6793155759
 C         -1.7084479432       -2.4102315106        0.0129379899
 C         -0.4544993629       -1.8107928086        0.6012985998
 C         -0.4334243131       -1.5047372248        1.9599044438
 C          0.6612590651       -0.8789955341        2.5231914859
 C          1.7573754232       -0.5413677720        1.7464991675
 C          1.7431162680       -0.8331375496        0.3901522693
 C          0.6460784591       -1.4791564523       -0.1700745372
 H          0.6436957736       -1.6904408113       -1.2275890646
 N          2.8476347395       -0.5146131464       -0.4206470423
 S          3.5435309770        1.0169198420       -0.4304737726
 O          2.9862785496        1.8397539005        0.6149568441
 O          3.4553065192        1.5321863064       -1.7799083516
 C          5.2540699458        0.6589786308       -0.0652383598
 C          6.2382764541        1.1194031943       -0.9174579210
 C          7.5653335371        0.8446949506       -0.6250620855
 C          7.8854082528        0.1170948073        0.5103971796
 C          6.8861336308       -0.3419391718        1.3554548950
 C          5.5581783421       -0.0707126492        1.0672881788
 H          4.7585141389       -0.4210095877        1.6987346696
 H          7.1363706789       -0.9115308124        2.2360993746
 H          8.9181458820       -0.0957436807        0.7373402143
 H          8.3423004766        1.1984869022       -1.2835507841
 H          5.9436241284        1.6777586720       -1.7911541915
 H          2.7206026573       -0.8133700460       -1.3772970664
 H          2.5934254096       -0.0175305258        2.1790832614
 H          0.6632792962       -0.6458313589        3.5774999030
 H         -1.2977953467       -1.7506229482        2.5621393935
 H         -2.1078379341       -3.1409594363        0.7288917751
 C         -1.5050745012       -3.0955164399       -1.3213568367
 C         -0.8221663586       -4.4285147577       -1.3678663613
 C         -2.2933582608       -4.3299639771       -1.6349498048
 H         -2.6458814025       -4.4717461513       -2.6456171118
 H         -2.9774516764       -4.6898296461       -0.8803510520
 H         -0.1634967461       -4.6433118621       -2.1955327672
 H         -0.5053335133       -4.8573319418       -0.4293046847
 H         -1.3291048063       -2.4029132487       -2.1354647548
