  62
        -98.94463912
 C         -2.1367063506       -1.0212265299       -0.4358902390
 C         -3.1994638606       -1.2406428691        0.4762837911
 C         -4.4476883205       -0.5183730390        0.2015500907
 C         -4.5152000404        0.2921995703       -0.8703066198
 C         -5.7002931902        1.1390027303       -1.2314947204
 C         -5.5977998700        2.5338207007       -0.5982894513
 C         -5.2713678599        2.5120480416        0.8950893687
 H         -4.2641513700        2.1119957915        1.0340270990
 H         -5.2538883897        3.5485631118        1.2389633981
 C         -6.2599631101        1.7059972123        1.7493134993
 H         -6.5050467900        2.2858868629        2.6416149089
 H         -7.1881402801        1.5540466121        1.1971957894
 C         -5.7281236903        0.3540097825        2.2283438801
 H         -4.7521361703        0.4913376626        2.7006015800
 H         -6.4104996604       -0.0284670269        2.9920602104
 C         -5.5937736005       -0.7291661682        1.1505803108
 H         -6.5342627606       -0.8232514084        0.6040739309
 H         -5.3934349907       -1.6779335479        1.6568036014
 H         -4.8103756999        3.0903929702       -1.1120496816
 H         -6.5428123599        3.0560492407       -0.7586056416
 H         -5.7304329602        1.2442559896       -2.3173019504
 H         -6.6102265003        0.6433803407       -0.8987966000
 O         -3.4800436004        0.4703368995       -1.7287771200
 C         -2.2631886605       -0.1678737706       -1.5321068896
 O         -1.4065539404        0.1011517287       -2.3957464398
 O         -3.1072402108       -2.0061252985        1.4726217116
 C         -0.8143471607       -1.7237009000       -0.1726891586
 C          0.1997751995       -0.6825321099        0.2310151907
 C          0.1972820996       -0.2076409291        1.5400744704
 C          1.0728090398        0.7868149310        1.9335663698
 C          1.9673017098        1.3328494503        1.0294100794
 C          1.9776199297        0.8655515595       -0.2780786103
 C          1.1089785795       -0.1465241206       -0.6675487796
 H          1.1178402895       -0.4869217813       -1.6905739094
 N          2.8753269098        1.4187418887       -1.2037897706
 S          4.4523564099        1.6981147387       -0.7319311708
 O          4.5267136801        2.9221359492        0.0272190784
 O          5.2256579599        1.6658762578       -1.9533888308
 C          4.8774661896        0.3151330193        0.3124417300
 C          5.2047935897        0.5242204401        1.6364535099
 C          5.5016743995       -0.5692975795        2.4343850606
 C          5.4631811293       -1.8464503998        1.8973344514
 C          5.1356528292       -2.0400961706        0.5638084315
 C          4.8385194094       -0.9506647811       -0.2383692392
 H          4.5857694494       -1.0659893717       -1.2800961791
 H          5.1075097190       -3.0345017509        0.1480647522
 H          5.6905466691       -2.6970060194        2.5203742619
 H          5.7586343895       -0.4215561589        3.4709582005
 H          5.2222915799        1.5338654603        2.0134226593
 H          2.8166793697        1.0189704381       -2.1279285004
 H          2.6422685800        2.1245142503        1.3114740089
 H          1.0571043998        1.1458404717        2.9513812695
 H         -0.5125755305       -0.6219288185        2.2423964607
 H         -1.0007508709       -2.3716132594        0.6943448918
 C         -0.3821118009       -2.5858155008       -1.3396229681
 C          0.6859204089       -3.6165722809       -1.1320596574
 C         -0.7355262612       -4.0416373007       -1.3426849371
 H         -1.0040616613       -4.5031393613       -2.2812526868
 H         -1.2869079012       -4.4239220201       -0.4962661969
 H          1.3965517189       -3.7913270715       -1.9253252973
 H          1.0991881489       -3.7089969303       -0.1392779274
 H         -0.4150529708       -2.0700828414       -2.2915810784
