  62
        -98.94055482
 C          1.9311620136        0.8598488160        0.6978011530
 C          1.8918648797        0.1963306306       -0.5538636645
 C          2.1827698799       -1.2451754628       -0.5248680481
 C          2.3748226915       -1.8592861849        0.6552683219
 C          2.7212258374       -3.3098471859        0.8247905810
 C          4.2419642078       -3.5213206575        0.8418614526
 C          4.9752495034       -2.8293751250       -0.3072379877
 H          4.8799149080       -1.7474915798       -0.1897204047
 H          6.0355013702       -3.0716708227       -0.2086022704
 C          4.4860978509       -3.2309868448       -1.7056651416
 H          5.3548845502       -3.4136165439       -2.3413963188
 H          3.9239643021       -4.1635814125       -1.6474685785
 C          3.6351723377       -2.1712226353       -2.4080368272
 H          3.5265677673       -2.4614913170       -3.4563032385
 H          4.1559407638       -1.2105908496       -2.3865538250
 C          2.2238381105       -1.9664916191       -1.8422880917
 H          1.6674377439       -1.3360235078       -2.5422515491
 H          1.7094538573       -2.9270382784       -1.7689244343
 H          4.6339894064       -3.1302335245        1.7836125786
 H          4.4408391082       -4.5940151870        0.8099152255
 H          2.3024921573       -3.6530124986        1.7725398181
 H          2.2711532371       -3.8799312095        0.0142042604
 O          2.3209937451       -1.2058163398        1.8452057773
 C          2.0986476091        0.1604164438        1.8942804341
 O          2.0717532435        0.6311111806        3.0507639877
 H         -0.7096059950        1.1719766542        1.0565621390
 C         -0.7379633208        1.9287689148        0.2841465471
 C          0.4057632990        2.6700678062        0.0118895238
 C          0.3500109519        3.6398054744       -0.9793808044
 C         -0.8182268092        3.8367377773       -1.6956933393
 C         -1.9411171952        3.0694906312       -1.4496640234
 C         -1.8980381963        2.1041019540       -0.4488335704
 N         -3.0289568335        1.3203291804       -0.1549819037
 S         -2.7948927923       -0.2572812205        0.3973296013
 O         -2.5228181399       -0.2154203124        1.8138141440
 O         -1.8277264168       -0.9515248363       -0.4228859220
 C         -4.4281422580       -0.9219775774        0.1273168367
 C         -5.4241703618       -0.6161643615        1.0356854687
 C         -6.7038589903       -1.0998233579        0.8148462187
 C         -6.9653230407       -1.8766101696       -0.3042776659
 C         -5.9553288397       -2.1771550436       -1.2056705725
 C         -4.6733633158       -1.6948423221       -0.9916699606
 H         -3.8543890133       -1.9070629307       -1.6603063730
 H         -6.1601975576       -2.7839453844       -2.0728787774
 H         -7.9619216255       -2.2524587108       -0.4735753262
 H         -7.4906671340       -0.8702626915        1.5150564574
 H         -5.1699276005       -0.0174464022        1.8946858544
 H         -3.7254626954        1.3529111407       -0.8873876523
 H         -2.8425199703        3.2089609597       -2.0268670289
 H         -0.8473057970        4.5866105852       -2.4717628778
 H          1.2277192318        4.2192787487       -1.2137723802
 C          1.6396773306        2.3470095523        0.8185560694
 H          1.3902868606        2.4988406035        1.8826809732
 C          2.8253417500        3.2508993463        0.5171689433
 C          4.2305870765        2.7615461619        0.6992946568
 C          3.7085294311        3.0458220197       -0.6753227823
 H          4.0809161899        3.9187189421       -1.1914183790
 H          3.4813029164        2.2163079875       -1.3253255104
 H          4.9573274887        3.4359266286        1.1268415972
 H          4.3641263108        1.7307133010        0.9952731206
 H          2.6350335289        4.2781399494        0.8127502309
 O          1.6411889972        0.7678725591       -1.6464530775
