  62
        -98.93021412
 C         -1.1763899723       -0.6371322349        0.8920493922
 C         -2.0796077697       -0.6561484614       -0.1975592696
 C         -2.7538020328        0.6186428384       -0.5067477482
 C         -2.4461773421        1.7211966738        0.1950925869
 C         -2.9622167456        3.1270857738        0.0134837107
 C         -4.4641768291        3.3040052894       -0.2491766485
 C         -5.3694225841        2.2692532210        0.4353198573
 H         -4.7954723213        1.6966473512        1.1657386678
 H         -6.1586159541        2.7931146608        0.9776959689
 C         -6.0359743929        1.3109226726       -0.5545781770
 H         -6.9141092229        0.8687435181       -0.0779952233
 H         -6.3853653263        1.8849826431       -1.4154739834
 C         -5.1587700050        0.1594094366       -1.0445509644
 H         -5.7072052028       -0.3725914234       -1.8255050873
 H         -4.9895833894       -0.5505508524       -0.2306140943
 C         -3.7831425588        0.5651027596       -1.5989121840
 H         -3.8372929802        1.5029955689       -2.1467554083
 H         -3.4505470969       -0.2184152681       -2.2854918732
 H         -4.6502001980        3.2845388262       -1.3221218950
 H         -4.7279572775        4.3049733797        0.0967116048
 H         -2.6871265294        3.6515357087        0.9320326413
 H         -2.3952319949        3.5888473843       -0.8007984935
 O         -1.5354981184        1.7042545505        1.2088569475
 C         -0.8775686782        0.5431581727        1.5699654155
 O         -0.0617775987        0.6896605576        2.5048416384
 O         -2.3161656503       -1.6749432794       -0.8939452679
 C         -0.3833151072       -1.8814040717        1.2849357739
 C          0.3910651847       -2.2883974580        0.0538115301
 C          0.1758465086       -3.3822413556       -0.7727670041
 C          0.9095194698       -3.5342030437       -1.9389738074
 C          1.8422532542       -2.5933175985       -2.3289878300
 C          2.0681203033       -1.4909298965       -1.5109849646
 C          1.3754907170       -1.3748215130       -0.3201894654
 H          1.5549865577       -0.5169845042        0.3104368086
 N          2.9949292737       -0.5012573986       -1.8677820020
 S          2.7625864546        1.0983624120       -1.4258429532
 O          1.3642565498        1.4324151185       -1.2856573986
 O          3.4971358451        1.8476660227       -2.4254744913
 C          3.6319674630        1.2284346382        0.1220672064
 C          2.9688615115        1.5622189000        1.2846530499
 C          3.6904104366        1.6465123115        2.4661268766
 C          5.0544367844        1.4027026349        2.4635954241
 C          5.7081155345        1.0743576287        1.2847180078
 C          4.9925219708        0.9853667914        0.1027742162
 H          5.4609897966        0.7406323452       -0.8357664895
 H          6.7696584720        0.8865160747        1.2854508632
 H          5.6093118661        1.4696422921        3.3861058604
 H          3.1711625966        1.8949707742        3.3780243982
 H          1.9031670483        1.7349881192        1.2661794090
 H          3.3744341699       -0.5874267791       -2.7990607921
 H          2.3813097931       -2.6990139702       -3.2580641232
 H          0.7251211544       -4.3908641694       -2.5697753614
 H         -0.5823961362       -4.1094070660       -0.5472665641
 H          0.3608056073       -1.5194650433        2.0130882878
 C         -1.2564144382       -2.8578628360        2.0559654652
 C         -2.2655085682       -3.7921951635        1.4642354527
 C         -1.0303242957       -4.3387383470        2.1165758452
 H         -1.1389338599       -4.8251649796        3.0747666220
 H         -0.2548166215       -4.7620135919        1.4994250167
 H         -3.2061761427       -3.9003283397        1.9859528129
 H         -2.3718209879       -3.8125155883        0.3924570829
 H         -1.5577910868       -2.3903256777        2.9915671302
