  62
        -98.94892769
 C          2.2286579722        0.8673087195        0.0799990934
 C          1.5880196065        0.1266026003       -0.9420785131
 C          2.0006636751       -1.2766588580       -1.0747674125
 C          2.9074637062       -1.7795428860       -0.2180324735
 C          3.4241375109       -3.1888306250       -0.2409360747
 C          2.6032700225       -4.1176534637        0.6626583392
 C          1.0931275460       -4.0261700104        0.4428110116
 H          0.6244573216       -4.7674844589        1.0949219315
 H          0.7330388947       -3.0479708329        0.7704824364
 C          0.6425186914       -4.2629923950       -1.0052692483
 H          1.4276389138       -4.7765147647       -1.5626300514
 H         -0.2311697363       -4.9181551861       -0.9928084281
 C          0.2327656510       -2.9884500484       -1.7458247073
 H         -0.4411349067       -2.4105958464       -1.1081926557
 H         -0.3219850256       -3.2756290488       -2.6433581959
 C          1.3846913453       -2.0763478778       -2.1878983209
 H          2.1448016443       -2.6668665663       -2.7048068454
 H          0.9791265701       -1.3443833468       -2.8925637833
 H          2.9352561978       -5.1437733874        0.4906145704
 H          2.8121607588       -3.8635472429        1.7046464867
 H          3.4051201170       -3.5555328302       -1.2656773315
 H          4.4573939941       -3.1772781050        0.1117792459
 O          3.4551463000       -1.0537312459        0.7918232539
 C          3.1202898964        0.2779550901        0.9733456456
 O          3.6767904663        0.8219634001        1.9513413071
 H          0.3578824882        0.9454892193        1.9055421855
 C         -0.2321541546        1.6454405664        1.3254390890
 C          0.4062775934        2.4909658793        0.4261136213
 C         -0.3676960306        3.3853294829       -0.3016379125
 C         -1.7457001506        3.3964882605       -0.1663511908
 C         -2.3802925154        2.5052233701        0.6799575515
 C         -1.6108531852        1.6295605332        1.4331335828
 N         -2.2722386782        0.6473268846        2.2318141127
 S         -2.2732264078       -0.8323228179        1.4094866113
 O         -3.0108177611       -1.7504744673        2.2523383547
 O         -0.9279952836       -1.2503505193        1.0785489029
 C         -3.2076622870       -0.4452478451       -0.0499744296
 C         -4.5850806810       -0.5244258198        0.0240854207
 C         -5.3367975425       -0.1770029140       -1.0861330952
 C         -4.6998677282        0.2472142429       -2.2431670528
 C         -3.3169335090        0.3237181891       -2.2983583490
 C         -2.5563158917       -0.0229379828       -1.1918749598
 H         -1.4783285920        0.0395310122       -1.2093723063
 H         -2.8164093204        0.6575366068       -3.1929645174
 H         -5.2841981869        0.5209105911       -3.1075825140
 H         -6.4126208807       -0.2345863430       -1.0456522276
 H         -5.0306255668       -0.8614504163        0.9455946175
 H         -1.8140749691        0.5003998694        3.1224255713
 H         -3.4543381262        2.4730247905        0.7632755551
 H         -2.3333711903        4.0903977717       -0.7470471081
 H          0.1084484252        4.0611937346       -0.9929660555
 C          1.8981389363        2.3395802370        0.2665841498
 H          2.3860215259        2.6473915483        1.2029947972
 C          2.4712469923        3.1502656157       -0.8771422931
 C          2.8461580426        4.5864842386       -0.6712540520
 C          3.9147420358        3.5480606498       -0.8301861462
 H          4.4853608514        3.5274564627       -1.7464277431
 H          4.4807468139        3.2531381455        0.0417573602
 H          2.6873939715        5.2825389448       -1.4808505810
 H          2.6926967140        5.0075829306        0.3107852712
 H          2.0649239051        2.8570079412       -1.8382952009
 O          0.7298894348        0.6195530626       -1.7198324445
