  62
        -98.94528893
 C          2.3340051968        1.1958657540       -0.0922551811
 C          3.1346292203        0.4027173834        0.7624070034
 C          3.6865211618       -0.8242334308        0.1740846742
 C          3.3901578922       -1.1312047502       -1.1023778102
 C          3.8279278093       -2.3828270318       -1.8054741255
 C          2.7877944632       -3.5004762650       -1.6449235920
 C          2.3369475445       -3.7239184276       -0.2011952180
 H          1.7816891087       -2.8449993896        0.1375203608
 H          1.6297929758       -4.5566752100       -0.2063898683
 C          3.4771505925       -4.0225178202        0.7828093967
 H          3.1776511654       -4.8566171870        1.4208102779
 H          4.3657473353       -4.3360745615        0.2339519781
 C          3.8374864284       -2.8594311730        1.7087874512
 H          4.4905148646       -3.2423201490        2.4975126843
 H          2.9308991697       -2.4823323879        2.1897318515
 C          4.5610336825       -1.6792804345        1.0479938839
 H          4.9203332237       -1.0226078963        1.8458259235
 H          5.4239248989       -2.0447489753        0.4880443410
 H          3.2093697284       -4.4252786923       -2.0431057640
 H          1.9062820450       -3.2435109711       -2.2375312466
 H          4.7870018160       -2.7039365521       -1.4036416818
 H          3.9438793490       -2.1581226153       -2.8669549491
 O          2.6097983431       -0.3496952616       -1.8909972781
 C          2.0482059995        0.8224852471       -1.4061784823
 O          1.3400553417        1.4317794969       -2.2288678249
 O          3.3707548640        0.7032170693        1.9650760879
 C          1.7027872136        2.4630071888        0.4587596243
 C          0.2019945121        2.3085900856        0.4424335786
 C         -0.6661654420        3.2249926399       -0.1346578426
 C         -2.0303669901        2.9875438919       -0.1455286332
 C         -2.5568367462        1.8387804812        0.4160478578
 C         -1.6972199379        0.9193887009        1.0031352218
 C         -0.3352943826        1.1639980768        1.0205933624
 H          0.3323320525        0.4409250763        1.4752310872
 N         -2.2304739546       -0.2700094058        1.5596223502
 S         -2.6939688597       -1.4061670403        0.4004568871
 O         -2.7699844726       -2.6656385028        1.1094302553
 O         -1.8186412274       -1.3733234032       -0.7505458983
 C         -4.3310134997       -0.8793431349       -0.0518694622
 C         -4.5579812137       -0.3506836250       -1.3071128011
 C         -5.8369729388        0.0746787323       -1.6315889174
 C         -6.8583528816       -0.0353016828       -0.7000348956
 C         -6.6134088267       -0.5713492214        0.5557511800
 C         -5.3374490201       -0.9985162357        0.8868431257
 H         -5.1010606077       -1.4250589732        1.8473419125
 H         -7.4106349242       -0.6555996697        1.2764817552
 H         -7.8514985242        0.2992131422       -0.9551183403
 H         -6.0287335516        0.4919993705       -2.6070216834
 H         -3.7299633959       -0.2789252059       -1.9945391930
 H         -1.5851213873       -0.7187366272        2.1965027156
 H         -3.6178250839        1.6502312089        0.4082110446
 H         -2.6925290405        3.7066581216       -0.6026686121
 H         -0.2733277266        4.1201338251       -0.5877289974
 H          2.0303255657        2.5197977148        1.5076834941
 C          2.2036904946        3.6867792211       -0.2765562334
 C          2.2102722075        5.0214486155        0.4054056427
 C          3.5008674499        4.3056184576        0.1470113183
 H          4.1619770337        4.6880779932       -0.6159836069
 H          4.0153764923        3.8558467047        0.9837105566
 H          1.9874361225        5.9004737103       -0.1799781560
 H          1.8499145532        5.0642047116        1.4220012168
 H          1.9897534524        3.6514884345       -1.3385707107
