  62
        -98.93136385
 C          2.3804850929        1.0102201787        0.3316703464
 C          2.7798993242       -0.2087476164        0.9408825851
 C          4.1663023178       -0.6367398523        0.7169714868
 C          4.9847447595        0.1339269743       -0.0211621354
 C          6.4452699217       -0.1038342086       -0.3012552812
 C          6.7882171973       -1.3546299812       -1.1327067861
 C          7.1207537041       -2.5969303440       -0.2971562507
 H          7.9570848386       -3.1209593704       -0.7641840305
 H          7.4625329770       -2.2765697874        0.6877514759
 C          5.9883129367       -3.6157806352       -0.1381837084
 H          5.9017925017       -4.1996441873       -1.0573581567
 H          6.2668607425       -4.3036587026        0.6630765566
 C          4.6068719463       -3.0356199645        0.1663803832
 H          3.9451228418       -3.8579075564        0.4460245797
 H          4.1838505905       -2.5955362120       -0.7398951835
 C          4.5888178613       -1.9648621891        1.2744978644
 H          5.5652842278       -1.8868697185        1.7506052766
 H          3.8538108279       -2.2299903547        2.0372382405
 H          7.6642222679       -1.1037033154       -1.7328463092
 H          5.9729421094       -1.5663652794       -1.8238637580
 H          6.7847784577        0.7846188477       -0.8375119094
 H          6.9804954806       -0.1438641985        0.6502216585
 O          4.5668108392        1.2970931833       -0.5857847219
 C          3.2667761933        1.7591522144       -0.4433002283
 O          3.0589329314        2.8295777374       -1.0482887484
 O          2.0109906737       -0.9033823600        1.6598399448
 C          0.9523969633        1.4566833542        0.5857901687
 C          0.0126781736        1.1225526356       -0.5486186386
 C          0.2343633798        1.5781506363       -1.8440526821
 C         -0.6775165481        1.3028896117       -2.8466446199
 C         -1.8356637123        0.5958173307       -2.5750692550
 C         -2.0645474647        0.1340412328       -1.2845190964
 C         -1.1341330890        0.3876410012       -0.2864222913
 H         -1.3208920526        0.0094255067        0.7083728447
 N         -3.2232548932       -0.5938658286       -0.9718035015
 S         -3.9305605427       -0.3323885256        0.5407003978
 O         -3.8778305603        1.0726608998        0.8740318354
 O         -3.3367147745       -1.2366505040        1.4935173556
 C         -5.6115670178       -0.8250630423        0.2069334154
 C         -5.9374884784       -2.1672713716        0.2579358968
 C         -7.2365926207       -2.5519697440       -0.0335856175
 C         -8.1820041555       -1.5944593451       -0.3703885712
 C         -7.8403141683       -0.2511547848       -0.4157142062
 C         -6.5427076087        0.1406215802       -0.1262672824
 H         -6.2333946456        1.1734064816       -0.1396960271
 H         -8.5782386973        0.4910131921       -0.6744202377
 H         -9.1924298730       -1.8968467238       -0.5958917075
 H         -7.5068088408       -3.5949333017        0.0036633966
 H         -5.1715621486       -2.8736001526        0.5332559655
 H         -3.9069402100       -0.5884578161       -1.7163493755
 H         -2.5543008442        0.3990567810       -3.3562020498
 H         -0.4922518331        1.6591625286       -3.8488798836
 H          1.1234852661        2.1525514821       -2.0533790153
 H          0.6227642999        0.8766368681        1.4594332087
 C          0.8242210704        2.9326274403        0.9191666711
 C         -0.4481543324        3.4231158456        1.5404221814
 C          0.8107705392        3.3682277113        2.3518559215
 H          1.2973940968        4.2960241367        2.6129739655
 H          0.8961086444        2.6014846306        3.1083967753
 H         -0.8242509700        4.3898721432        1.2422562650
 H         -1.2242474350        2.6976804648        1.7396471009
 H          1.3157689595        3.5773537497        0.2022387624
