  62
        -98.93155006
 C         -2.4029601997       -0.8379493993        0.6616049102
 C         -3.4552867397       -0.8899694400       -0.2808396499
 C         -4.6693580397       -0.1026163798        0.0281079995
 C         -4.7031584598        0.6365302810        1.1515672590
 C         -5.8006823198        1.5383568513        1.6519851583
 C         -5.8783623697        2.8669705308        0.8845872474
 C         -5.7888327896        2.7361511398       -0.6331959125
 H         -5.7656086696        3.7455271695       -1.0525221832
 H         -4.8448901396        2.2553958596       -0.8963489221
 C         -6.9438272196        1.9833501894       -1.2894429121
 H         -7.8846476896        2.4757194096       -1.0336606025
 H         -6.8100078195        2.0657022287       -2.3711305321
 C         -7.0582232196        0.4975489996       -0.9397504411
 H         -7.7325253995        0.0425695291       -1.6711938508
 H         -7.5192197397        0.3543176203        0.0338731690
 C         -5.7453849896       -0.2747942004       -1.0174442405
 H         -5.9719487296       -1.3477631904       -1.0277233398
 H         -5.2675383895       -0.0745129311       -1.9832539806
 H         -6.8103942397        3.3663231310        1.1550728470
 H         -5.0491484397        3.4977280710        1.2143774171
 H         -6.7543046798        1.0197475813        1.6221082986
 H         -5.5725670499        1.7547020020        2.6981014182
 O         -3.6497610198        0.6824425316        2.0173137790
 C         -2.4982746998       -0.0442556986        1.8082224696
 O         -1.6380311799        0.0873441020        2.7033095596
 H          1.2908763502       -0.5777211690        1.1698486903
 C          1.0735577603       -0.4435858897        0.1184437302
 C         -0.1318975696       -0.9055592501       -0.3895579596
 C         -0.4048835495       -0.7138810710       -1.7396336998
 C          0.5084051805       -0.0673384015       -2.5525370601
 C          1.7078096505        0.3968605388       -2.0419829203
 C          1.9916649604        0.2079211497       -0.6962650302
 N          3.2019671504        0.6897899401       -0.1672211404
 S          4.5955029804        0.4532701194       -1.0945081702
 O          4.6993849205        1.5343803688       -2.0425941009
 O          4.5961335405       -0.8791086709       -1.6545762293
 C          5.8682642403        0.6076454202        0.1428156198
 C          6.2963749103        1.8695039905        0.5094038890
 C          7.2705750802        1.9870313211        1.4879990090
 C          7.7965018102        0.8483864215        2.0803998798
 C          7.3574177202       -0.4111834287        1.7010103106
 C          6.3826607603       -0.5360789494        0.7237124506
 H          6.0184026403       -1.4947189496        0.3903994613
 H          7.7704770702       -1.2944876484        2.1609920313
 H          8.5557871601        0.9427226120        2.8405969598
 H          7.6169430902        2.9640125213        1.7842074284
 H          5.8663867904        2.7251813602        0.0154980684
 H          3.3421161003        0.4064314707        0.7928161798
 H          2.4299820405        0.8962003084       -2.6682402906
 H          0.2850498906        0.0769905478       -3.5992355802
 H         -1.3424630895       -1.0664129112       -2.1411335496
 C         -1.1052397997       -1.6177526195        0.5201321408
 H         -0.6662819198       -1.6339752488        1.5270272108
 C         -1.3124415097       -3.0510067297        0.0698664117
 C         -0.2445805897       -4.0609542296        0.3581306625
 C         -1.5474310298       -4.1149375491        1.0972772224
 H         -2.2415052698       -4.9088758292        0.8662625029
 H         -1.5582729999       -3.8143256484        2.1351313822
 H         -0.0397845297       -4.8188058101       -0.3823031870
 H          0.6299107902       -3.7253634292        0.8951844723
 H         -1.8484823396       -3.1359677404       -0.8655298583
 O         -3.4197809596       -1.5580154607       -1.3486367994
