  62
        -98.94002500
 C          2.2273980536        0.7826411073        0.0197720919
 C          2.5325909306       -0.2251165755        0.9651766483
 C          3.1527813746       -1.4409810279        0.4270614193
 C          3.3538296609       -1.5559418943       -0.8986119004
 C          3.9512264705       -2.7435521543       -1.6034863961
 C          5.4860206075       -2.7542334151       -1.6161689744
 C          6.1454584686       -3.0799933465       -0.2754589508
 H          5.7199819118       -4.0014190509        0.1232522457
 H          7.2018811289       -3.2691084730       -0.4758407715
 C          6.0350160438       -1.9637891025        0.7726162668
 H          5.7699583253       -1.0256291777        0.2796184660
 H          7.0071823450       -1.8119138411        1.2469057678
 C          5.0259957184       -2.2381118327        1.8877847005
 H          5.0035487197       -1.3693830611        2.5508421819
 H          5.3522104887       -3.1000985527        2.4739821782
 C          3.5956632666       -2.4957581899        1.3959231394
 H          3.5266602312       -3.4838549614        0.9413472663
 H          2.9247084283       -2.4585134260        2.2578725760
 H          5.8390264879       -1.7827592415       -1.9696396821
 H          5.8000738401       -3.5064857891       -2.3433829966
 H          3.5986993344       -2.7003059256       -2.6361799077
 H          3.5838268435       -3.6638516757       -1.1486186639
 O          3.0047248382       -0.5815408549       -1.7799693788
 C          2.4483780334        0.6139977227       -1.3475681238
 O          2.1970953159        1.4212202473       -2.2611520625
 O          2.2886169099       -0.1180853553        2.1982120764
 C          1.5982918443        2.0770280197        0.5025581994
 C          0.2209428205        2.2317082486       -0.0954979145
 C         -0.2086508671        3.3738889551       -0.7563629339
 C         -1.4882349833        3.4392278065       -1.2819435682
 C         -2.3650211369        2.3776650028       -1.1590814624
 C         -1.9513754091        1.2357808432       -0.4844712160
 C         -0.6706953764        1.1739912300        0.0419895797
 H         -0.3478132378        0.2824977297        0.5671776798
 N         -2.8326941468        0.1358145226       -0.3581089006
 S         -4.2429763864        0.3878958191        0.5416316941
 O         -4.9592406345        1.5044751348       -0.0165816398
 O         -3.9234308040        0.4754564489        1.9518084982
 C         -5.1169019696       -1.1273288397        0.2058151168
 C         -5.7790330469       -1.2506848064       -1.0004410182
 C         -6.4377623752       -2.4361458661       -1.2841339906
 C         -6.4214371787       -3.4733196845       -0.3631841934
 C         -5.7525311976       -3.3342618861        0.8433358295
 C         -5.0909993842       -2.1509949715        1.1327961575
 H         -4.5652836959       -1.9962270260        2.0615588141
 H         -5.7430021669       -4.1411031837        1.5584517019
 H         -6.9354226193       -4.3950597849       -0.5858422012
 H         -6.9606671472       -2.5479720695       -2.2202400460
 H         -5.7706041678       -0.4164879747       -1.6821138947
 H         -2.3558454809       -0.6610741584        0.0456834073
 H         -3.3640359566        2.4255409611       -1.5589967472
 H         -1.8054131242        4.3309223194       -1.8013275830
 H          0.4590580827        4.2122461485       -0.8675274644
 H          1.4810787964        1.9564196761        1.5903553338
 C          2.5165857494        3.2511919393        0.2399014107
 C          2.4432799972        4.4718864061        1.1062264064
 C          3.6146680541        3.5440816301        1.2163302747
 H          4.5705730072        3.8701078280        0.8347947791
 H          3.6861903478        2.9100725820        2.0882494738
 H          2.5970231458        5.4383149079        0.6505136689
 H          1.7197922300        4.4725276281        1.9076045974
 H          2.7367501773        3.3808288606       -0.8136232071
