  62
        -98.94123007
 C          2.0163783228        1.2303170626        0.1207622703
 C          2.7970951113        0.6599019572        1.1583171315
 C          3.9714526282       -0.1113593218        0.7372443095
 C          4.2347574700       -0.2606689637       -0.5734399362
 C          5.4063123200       -0.9979605861       -1.1631785676
 C          5.1912487406       -2.5124905617       -1.2885439190
 C          5.2235317488       -3.2857391342        0.0304874822
 H          5.2778585580       -4.3467108119       -0.2215132447
 H          6.1335585681       -3.0338856087        0.5759593111
 C          4.0012097954       -3.0548546890        0.9301322520
 H          3.1925072070       -2.6181084477        0.3389320036
 H          3.6388698449       -4.0147287640        1.3056335167
 C          4.2667540307       -2.1639241761        2.1439284910
 H          4.9802193437       -2.6553447609        2.8090286474
 H          3.3282747684       -2.0398023340        2.6904117029
 C          4.8018484481       -0.7679346217        1.7986352081
 H          4.7460332849       -0.1482605348        2.6970193354
 H          5.8425719802       -0.8320615245        1.4817767208
 H          4.2377895750       -2.6895715410       -1.7920852055
 H          5.9833138971       -2.9019151439       -1.9322660062
 H          5.5592435956       -0.5886573320       -2.1641253797
 H          6.2990583559       -0.8039816851       -0.5678946167
 O          3.4440063686        0.2723299792       -1.5405605256
 C          2.3049310029        1.0070928476       -1.2269006987
 O          1.6650371774        1.3873235135       -2.2236761443
 O          2.5210931606        0.7863156565        2.3813406673
 C          0.7868158664        2.0247378006        0.5241924024
 C         -0.4141642785        1.5467644843       -0.2525452853
 C         -1.1796469905        2.3621777894       -1.0742299709
 C         -2.2590946201        1.8418051211       -1.7678120040
 C         -2.6020106074        0.5078403257       -1.6539358674
 C         -1.8494076910       -0.3148212789       -0.8244615141
 C         -0.7742179781        0.2099314896       -0.1250289565
 H         -0.1841597833       -0.4343010417        0.5158994123
 N         -2.1921487293       -1.6705976747       -0.6940974670
 S         -3.8071693660       -2.0734013925       -0.5328082437
 O         -3.8108492344       -3.3274761608        0.1877063089
 O         -4.4383014267       -2.0918736028       -1.8288473761
 C         -4.5176647809       -0.7768371555        0.4659343601
 C         -5.5296142338        0.0109437619       -0.0431998455
 C         -6.0455919369        1.0295733759        0.7420849841
 C         -5.5399485644        1.2438947517        2.0146413611
 C         -4.5248910287        0.4415623953        2.5134732355
 C         -4.0070701104       -0.5795070674        1.7337330167
 H         -3.2218945332       -1.2245155292        2.0948228808
 H         -4.1328282613        0.6091338707        3.5038268355
 H         -5.9388543200        2.0397108932        2.6235167432
 H         -6.8363064503        1.6534223852        0.3578158779
 H         -5.8914240876       -0.1890412757       -1.0385727143
 H         -1.6160481986       -2.1834940276       -0.0439930833
 H         -3.4251711137        0.0850071366       -2.2066412486
 H         -2.8370543105        2.4839395805       -2.4146533439
 H         -0.9147743585        3.3992383640       -1.1956548735
 H          0.6305444803        1.7564295774        1.5828648193
 C          0.9722517766        3.5339580308        0.4902018588
 C          2.3247936268        4.1488459709        0.6874129220
 C          1.6473812724        4.2404844112       -0.6454303768
 H          1.2576531933        5.1992623426       -0.9551972247
 H          2.0214463368        3.6389978571       -1.4585925751
 H          2.4005235414        5.0408539889        1.2910055965
 H          3.1690480900        3.4818351790        0.7865527536
 H          0.1401252422        4.0518955371        0.9570744869
