  62
        -98.93986987
 C          1.9738234343        0.8196967958       -0.2197802999
 C          2.8440406592        0.4909216267        0.8522063973
 C          3.3816744035       -0.8739442587        0.8711753443
 C          3.0012097111       -1.7375465825       -0.0873511595
 C          3.5034709415       -3.1456810065       -0.2220778048
 C          4.7437694782       -3.2094210595       -1.1246127962
 C          5.8219373180       -2.1868232727       -0.7653672067
 H          6.6588903899       -2.3433578456       -1.4493067176
 H          5.4356410203       -1.1826064690       -0.9543384530
 C          6.3216435942       -2.2732342376        0.6835295988
 H          7.4117246950       -2.2090433837        0.6818981630
 H          6.0541379241       -3.2405179401        1.1100275961
 C          5.8112898839       -1.1581753903        1.5981240378
 H          5.9937335360       -0.1878750301        1.1296270414
 H          6.3891439360       -1.1879085832        2.5256203430
 C          4.3279815022       -1.2353567148        1.9817071840
 H          4.0996530017       -2.2286932353        2.3733384413
 H          4.1504413061       -0.5032569722        2.7748183506
 H          5.1605428763       -4.2166355266       -1.0675116727
 H          4.4299502272       -3.0286241852       -2.1553516642
 H          3.7390377892       -3.5363997519        0.7660577685
 H          2.7097442320       -3.7513265082       -0.6630217377
 O          2.1447650007       -1.4011970647       -1.0834579573
 C          1.6115572975       -0.1210589064       -1.1856256095
 O          0.8615359728        0.0209034666       -2.1713726978
 H         -0.6921264666        0.5265175175       -0.2166937667
 C         -0.8546259107        1.3917290613        0.4079523148
 C          0.1323948985        2.3591467065        0.5269227422
 C         -0.1085048057        3.4658769404        1.3334783347
 C         -1.3141221277        3.6046987711        1.9963464077
 C         -2.2995347445        2.6436786457        1.8682703223
 C         -2.0634410946        1.5241799425        1.0763868838
 N         -3.0311503989        0.5125693912        0.9843718189
 S         -3.0908726931       -0.4932107346       -0.3678532237
 O         -2.0826659457       -1.5139243947       -0.2296679035
 O         -3.0759957843        0.2962732599       -1.5782079796
 C         -4.7086280041       -1.2093691775       -0.1359516554
 C         -5.7980927033       -0.6249034415       -0.7543487474
 C         -7.0579114957       -1.1636505346       -0.5454877981
 C         -7.2072843569       -2.2708487413        0.2761013640
 C         -6.1048447764       -2.8480931961        0.8885426953
 C         -4.8423473716       -2.3143344086        0.6830867002
 H         -3.9552637839       -2.7330299611        1.1292931980
 H         -6.2236021887       -3.7110361691        1.5237115276
 H         -8.1884345226       -2.6885243302        0.4374810253
 H         -7.9158126582       -0.7191544374       -1.0236143041
 H         -5.6316984904        0.2277303835       -1.3929182623
 H         -3.9511478041        0.8132057020        1.2753205425
 H         -3.2412582892        2.7485657474        2.3847061771
 H         -1.4898084839        4.4697554834        2.6172949679
 H          0.6608327325        4.2149031835        1.4452003115
 C          1.4371417388        2.2383880615       -0.2274930001
 H          2.1857475598        2.8342704452        0.3146876730
 C          1.2669306029        2.8313120430       -1.6132771156
 C          1.4129840980        4.3095534365       -1.8084502571
 C          2.4617003873        3.3767797318       -2.3339046749
 H          2.5341858518        3.2177048767       -3.3991014603
 H          3.4119028655        3.3373227291       -1.8211883445
 H          1.6603447807        4.9099541527       -0.9465163441
 H          0.7598206563        4.7991223321       -2.5141839544
 H          0.5213759377        2.3155117281       -2.2057981508
 O          3.1648208081        1.3153159989        1.7512960726
