  62
        -98.94536990
 C         -1.6394924004       -1.2433857197       -0.7505656301
 C         -2.8472437404       -0.8524098395       -0.1156149102
 C         -3.3655125304        0.4790275104       -0.4473235005
 C         -2.6972511904        1.2394505702       -1.3328474107
 C         -3.0731748103        2.6393169401       -1.7217415911
 C         -2.3602196403        3.6674011503       -0.8327641114
 C         -2.4755082303        3.3771830207        0.6639291287
 H         -1.9156302803        2.4658528908        0.8912571189
 H         -1.9709381503        4.1911080408        1.1902152085
 C         -3.9157848303        3.2482105109        1.1803323087
 H         -3.9998395003        3.8049073811        2.1161507686
 H         -4.6050429103        3.7043658107        0.4685014386
 C         -4.3650222403        1.8154458010        1.4741969091
 H         -3.6194644103        1.3224427911        2.1039883593
 H         -5.2974077103        1.8616850811        2.0435748991
 C         -4.6187303904        0.9303473406        0.2474307394
 H         -5.2838086004        1.4458087405       -0.4483114808
 H         -5.1169374804        0.0190371307        0.5911534196
 H         -1.2980415403        3.6727487102       -1.0894478214
 H         -2.7707201503        4.6560692703       -1.0481316416
 H         -2.7752861903        2.8012754198       -2.7591777911
 H         -4.1520146803        2.7575038601       -1.6400222511
 O         -1.5660121904        0.8231670800       -1.9483674506
 C         -0.9813486304       -0.3978082899       -1.6426963903
 O          0.0909448496       -0.5908361401       -2.2501811103
 O         -3.4668716704       -1.5939730093        0.6953003400
 C         -1.0685437304       -2.5862965596       -0.3244666197
 C         -0.1898415104       -2.3872647593        0.8893426102
 C         -0.3989123704       -3.1115890190        2.0559633604
 C          0.3702210696       -2.8660146587        3.1799547703
 C          1.3323865496       -1.8733535687        3.1692571001
 C          1.5513204296       -1.1436834890        2.0043344799
 C          0.8189734296       -1.4344351893        0.8642393500
 H          0.9992292596       -0.8753362695       -0.0379300502
 N          2.5073713896       -0.1200229290        1.9743685496
 S          2.2733134997        1.3118428807        1.1227330492
 O          2.7856759197        2.3427682410        2.0048771589
 O          0.9054034997        1.4662280307        0.6944218792
 C          3.4011425296        1.1467710804       -0.2460286707
 C          2.9637514396        0.7448023600       -1.4909209306
 C          3.8937677996        0.6040034298       -2.5110762006
 C          5.2335384396        0.8650840398       -2.2732509507
 C          5.6568333896        1.2708006201       -1.0160995408
 C          4.7346442897        1.4122309204        0.0066270692
 H          5.0164904697        1.7382233807        0.9940896191
 H          6.6990201896        1.4763082802       -0.8320287408
 H          5.9496910196        0.7530491796       -3.0720732106
 H          3.5563025696        0.2875501695       -3.4852733505
 H          1.9174601396        0.5417415000       -1.6629037506
 H          2.9461228196        0.0640532812        2.8648493096
 H          1.9065742496       -1.6547002185        4.0569948600
 H          0.2007620996       -3.4343748484        4.0819995105
 H         -1.1844174104       -3.8520017189        2.0868858206
 H         -1.9350657804       -3.1851041995       -0.0104095896
 C         -0.3321189504       -3.3433121399       -1.4096281395
 C         -0.2337824705       -4.8354879099       -1.3137064891
 C         -1.1070139205       -4.2070074501       -2.3570356093
 H         -0.7942038505       -4.2450365504       -3.3893703793
 H         -2.1780866905       -4.2569561701       -2.2243227493
 H          0.6823554595       -5.3108262900       -1.6281725090
 H         -0.7145282205       -5.3171972096       -0.4758433290
 H          0.5177428696       -2.8067535900       -1.8095146197
