  62
        -98.94617540
 C         -1.8157264735       -1.0254745038       -0.2902584589
 C         -3.1729605883       -1.2990853575        0.0031027665
 C         -4.1380777561       -0.2712138481       -0.4086343240
 C         -3.6944343931        0.8346370536       -1.0343727628
 C         -4.5611243621        1.9840117567       -1.4588205513
 C         -4.6530014018        3.0483875480       -0.3562768325
 C         -4.9926361944        2.4821274021        1.0224106809
 H         -4.1665744118        1.8536705355        1.3628996842
 H         -5.0603690017        3.3255363697        1.7129183653
 C         -6.2969560136        1.6743442164        1.0732624019
 H         -6.8613317563        1.9752036674        1.9584543582
 H         -6.9116849873        1.9074711641        0.2031185150
 C         -6.1018889326        0.1596923884        1.1637444567
 H         -7.0656475128       -0.2932759300        1.4112075937
 H         -5.4129159999       -0.0732400542        1.9796289287
 C         -5.5890993920       -0.5244114498       -0.1099055132
 H         -6.2132625739       -0.2374504405       -0.9586404477
 H         -5.6809469427       -1.6050509142        0.0337803635
 H         -5.4080327161        3.7811876021       -0.6466067001
 H         -3.6904698174        3.5603083605       -0.2881450438
 H         -4.1224949148        2.4342502471       -2.3508563413
 H         -5.5543387747        1.6122824083       -1.7030665365
 O         -2.3840948474        1.0552367311       -1.3118965596
 C         -1.4111511007        0.1376243859       -0.9437769580
 O         -0.2508856441        0.4693327289       -1.2496959352
 O         -3.5568088009       -2.3489770878        0.5855326361
 C         -0.7588334346       -2.0412319914        0.1032609895
 C          0.2812645059       -1.3967810251        0.9849235177
 C         -0.1364234689       -0.7078227771        2.1219124406
 C          0.7788734457       -0.0996619742        2.9577681174
 C          2.1329359697       -0.1587875259        2.6745687195
 C          2.5616022141       -0.8495389597        1.5487066725
 C          1.6386491979       -1.4729948940        0.7178964180
 H          2.0030202056       -1.9978286747       -0.1485737577
 N          3.9329392706       -0.9552305801        1.2511188053
 S          4.5154318239       -0.4861489173       -0.2466920617
 O          3.8851802417       -1.2579551956       -1.2851151202
 O          5.9518403612       -0.6193864794       -0.1342470047
 C          4.0940712438        1.2422091046       -0.3812042534
 C          2.7980064199        1.6077746783       -0.6846502664
 C          2.4817293047        2.9575489452       -0.7245627950
 C          3.4537780447        3.9104172918       -0.4638447088
 C          4.7510235770        3.5246107774       -0.1600452754
 C          5.0745779032        2.1788495413       -0.1130397544
 H          6.0696314967        1.8321017376        0.1149904263
 H          5.5071759161        4.2664558732        0.0408337831
 H          3.1982816909        4.9578952439       -0.4989141493
 H          1.4688004520        3.2431960619       -0.9607399949
 H          2.0466534914        0.8610969379       -0.8883162680
 H          4.5348271345       -0.5813104267        1.9717734076
 H          2.8507533161        0.3209793363        3.3225743349
 H          0.4377292106        0.4307389460        3.8339932233
 H         -1.1949053002       -0.6564190659        2.3388586653
 H         -1.2894894739       -2.8013267911        0.6961366038
 C         -0.1833417759       -2.7062319070       -1.1292515362
 C          0.3683005555       -4.0970107614       -1.0465506483
 C         -0.9275525538       -3.8453893915       -1.7557639257
 H         -0.9504035721       -3.9163936128       -2.8329427441
 H         -1.8432400261       -4.1612961167       -1.2773873563
 H          1.2406278918       -4.3383961836       -1.6354527659
 H          0.3338879283       -4.5919627273       -0.0876899504
 H          0.3071858377       -2.0053052041       -1.7965872407
