  62
        -98.93778010
 C          1.0095589089        1.4715280870       -0.1934923110
 C          1.8402539807        1.0411277871        0.8709448209
 C          2.8122442763       -0.0280626200        0.5812592215
 C          2.8548075159       -0.5548047623       -0.6564381470
 C          3.7220929996       -1.6405798723       -1.2594263070
 C          4.8702621856       -2.2494563037       -0.4598349673
 C          6.0741626727       -1.3227692330       -0.2808121932
 H          6.5885303078       -1.2387337390       -1.2415321639
 H          6.7661787375       -1.7856697045        0.4257444190
 C          5.7536931153        0.0936344784        0.1905058373
 H          5.0919577874        0.5797821605       -0.5289861585
 H          6.6879860292        0.6615337487        0.2034525576
 C          5.1322093324        0.1931797273        1.5812510462
 H          5.0682675210        1.2533472415        1.8413970158
 H          5.7850019335       -0.2899599173        2.3111491203
 C          3.7233249697       -0.4050071164        1.7148890156
 H          3.2685017704        0.0083713838        2.6199441382
 H          3.7691337577       -1.4843270735        1.8368482074
 H          5.2117544283       -3.1264814771       -1.0160361029
 H          4.5129855804       -2.6077990131        0.5011651444
 H          4.1181077821       -1.2271423158       -2.1928218504
 H          3.0327186014       -2.4394400509       -1.5510335870
 O          1.9971993944       -0.1462808833       -1.6351158425
 C          1.0660110718        0.8618747046       -1.4454368741
 O          0.3753429150        1.0948699620       -2.4558390242
 O          1.7778175419        1.5404951600        2.0256392473
 C          0.0573832324        2.6173603737        0.1047671569
 C         -1.2985050052        2.0939600010        0.4989209797
 C         -1.8967478975        2.4642957104        1.6969269228
 C         -3.1285348422        1.9461767689        2.0616300941
 C         -3.7859399043        1.0463316391        1.2413941701
 C         -3.1918885545        0.6680473953        0.0444806067
 C         -1.9618950021        1.1914024994       -0.3220892944
 H         -1.5065804865        0.8927586683       -1.2551128804
 N         -3.8342905928       -0.2883544395       -0.7792859620
 S         -3.7804803677       -1.8501410312       -0.1758305139
 O         -4.2870865547       -2.7024114471       -1.2263019695
 O         -4.4962120660       -1.8798407135        1.0737361869
 C         -2.0515982802       -2.1918259740        0.1071037289
 C         -1.3526578237       -2.9235198447       -0.8313192890
 C         -0.0050641404       -3.1680653016       -0.6230623167
 C          0.6215109770       -2.6613269944        0.5045076898
 C         -0.0886892692       -1.9090561814        1.4269910395
 C         -1.4402570218       -1.6753266664        1.2328674459
 H         -2.0240552727       -1.1104678483        1.9413629055
 H          0.4075225924       -1.4967509356        2.2913943704
 H          1.6699959983       -2.8512555958        0.6690185061
 H          0.5505119406       -3.7506316592       -1.3406902111
 H         -1.8784732405       -3.2990363191       -1.6947117752
 H         -3.4640784353       -0.2957324285       -1.7206709224
 H         -4.7321844292        0.6120342589        1.5195082172
 H         -3.5795274790        2.2423018272        2.9964368222
 H         -1.3822297340        3.1504011875        2.3535321565
 H          0.4884592070        3.1133231998        0.9884089245
 C          0.0009790147        3.6503864814       -1.0130318106
 C         -1.2118290606        3.9076307366       -1.8516334638
 C         -0.7893423389        4.9116101453       -0.8241507900
 H         -0.3627218036        5.8467120010       -1.1537077558
 H         -1.3897453844        4.9894529935        0.0698434802
 H         -1.0570760444        4.1323161958       -2.8960438751
 H         -2.1024005220        3.3294987855       -1.6619787146
 H          0.9565147513        3.7490726017       -1.5184757905
