  62
        -98.94568346
 C          1.0092403712        1.1412790209       -0.2436361954
 C          2.0792629247        1.2322987624        0.6855449378
 C          2.9586530876        0.0636478484        0.7827928070
 C          2.7120590827       -1.0173240368        0.0213714773
 C          3.5071411272       -2.2948781328        0.0136060169
 C          4.7593220350       -2.2474590630       -0.8731720428
 C          5.9131852481       -1.4038170780       -0.3298628264
 H          6.1325709081       -1.7055362481        0.6947423040
 H          6.7928016747       -1.6376128656       -0.9330755369
 C          5.6687638517        0.1107442059       -0.3815736863
 H          4.8456266659        0.3238679955       -1.0675437348
 H          6.5547064172        0.6094423385       -0.7813824030
 C          5.3613177040        0.7496698229        0.9727173603
 H          6.2324395837        0.6615192310        1.6258265814
 H          5.1667426087        1.8133162351        0.8133514075
 C          4.1471643246        0.1482519569        1.6924530701
 H          4.3949178157       -0.8364429557        2.0876734094
 H          3.8828864911        0.8050081786        2.5246698406
 H          5.1139824041       -3.2740670461       -0.9907333613
 H          4.4739068598       -1.8796906843       -1.8614506099
 H          2.8445220103       -3.0701562459       -0.3748423160
 H          3.7931753150       -2.5546808936        1.0330866036
 O          1.6689083508       -1.0742219723       -0.8452051832
 C          0.7976067352       -0.0057150132       -1.0092180865
 O         -0.0902136369       -0.2206595240       -1.8570473535
 O          2.2903804572        2.2492019171        1.3985880732
 C          0.0956810937        2.3519107946       -0.3473048159
 C         -1.1398901915        2.1355071277        0.4926979619
 C         -1.3050267565        2.8328445664        1.6846232125
 C         -2.4204540624        2.6235245473        2.4751897126
 C         -3.3850000831        1.7078897320        2.0971712077
 C         -3.2257288631        1.0002252625        0.9095089969
 C         -2.1121779341        1.2204130440        0.1113156635
 H         -2.0002298959        0.6620212456       -0.8044503305
 N         -4.1885603764        0.0639199381        0.5160820226
 S         -3.8472151558       -1.2083720075       -0.5012576264
 O         -3.7465829202       -0.7486253978       -1.8628285018
 O         -4.9243391077       -2.1457765138       -0.2459684142
 C         -2.3189628729       -1.9528143564        0.0421598366
 C         -1.5705884445       -2.6366722082       -0.8932394260
 C         -0.4274383295       -3.3034583493       -0.4836711985
 C         -0.0481630292       -3.2676019377        0.8482629584
 C         -0.8058515066       -2.5699362849        1.7750976117
 C         -1.9580056772       -1.9131504543        1.3738204512
 H         -2.5608796013       -1.3707393916        2.0839048525
 H         -0.5030993650       -2.5350863586        2.8095120478
 H          0.8449111125       -3.7820565208        1.1670818907
 H          0.1661320145       -3.8361428913       -1.2095105974
 H         -1.8855089674       -2.6198662585       -1.9240289327
 H         -4.8919634312       -0.1645848691        1.2019577833
 H         -4.2552873424        1.5375713043        2.7122557563
 H         -2.5375025172        3.1730973891        3.3966686765
 H         -0.5416684520        3.5313748628        1.9941616058
 H          0.6642066903        3.1761733252        0.1052640853
 C         -0.2540567796        2.7408501265       -1.7688440462
 C         -0.6823138080        4.1495235495       -2.0475843604
 C          0.6553565864        3.6651380569       -2.5190634606
 H          0.8032045574        3.4963727503       -3.5752222753
 H          1.5364929928        4.0244176250       -2.0072913747
 H         -1.4578141533        4.3151970982       -2.7796673605
 H         -0.7064754284        4.8390479699       -1.2172052490
 H         -0.7309316444        1.9502557571       -2.3334386558
