  62
        -98.94473984
 C          1.8439781608        0.1239866097        0.1613567100
 C          2.8824846608        0.8706739692        0.7678720107
 C          4.2012742508        0.2287219691        0.7910989904
 C          4.3497821607       -1.0084018506        0.2832737296
 C          5.6259482307       -1.8051116307        0.2539999792
 C          6.5388525408       -1.4751462299       -0.9349372205
 C          7.2525344209       -0.1251994801       -0.8519889895
 H          7.7648599208       -0.0450170907        0.1072588706
 H          8.0173337010       -0.1193103396       -1.6312120994
 C          6.3355996911        1.0896565802       -1.0517834688
 H          6.8073404812        1.7917837306       -1.7430155383
 H          5.3992828811        0.7675039105       -1.5134462191
 C          6.0160775610        1.8607625093        0.2289841817
 H          6.9318557610        2.3009072590        0.6297082121
 H          5.3332016511        2.6756800296       -0.0240966079
 C          5.3586231508        1.0156901486        1.3280288810
 H          6.0934711707        0.3515432383        1.7823198107
 H          4.9736679108        1.6911813082        2.0958430314
 H          7.2968121408       -2.2598987900       -0.9913789410
 H          5.9468095909       -1.5191444693       -1.8520955606
 H          6.1726234906       -1.6581922813        1.1858529793
 H          5.3343655706       -2.8552340106        0.1830691284
 O          3.3183905207       -1.7059693201       -0.2632644610
 C          2.0485050708       -1.1534107899       -0.3600798608
 O          1.2113370208       -1.8907870095       -0.9142318814
 O          2.7134554709        2.0138343989        1.2700302214
 C          0.4590798609        0.7409997099        0.0641427103
 C         -0.5435664992       -0.1530674405        0.7474516996
 C         -0.3200240394       -0.4941194314        2.0803754594
 C         -1.1784995796       -1.3444993917        2.7470747087
 C         -2.2854058495       -1.8681457512        2.1013396282
 C         -2.5223190494       -1.5292485503        0.7754968284
 C         -1.6622000992       -0.6639511499        0.1096620691
 H         -1.8631976391       -0.4325195592       -0.9225219807
 N         -3.6274913393       -2.0612928897        0.0967377780
 S         -4.4910221791       -1.1338900689       -0.9860798915
 O         -5.7809867092       -1.7857260088       -1.0659159421
 O         -3.7773345590       -0.9987188282       -2.2304161013
 C         -4.6632309391        0.4577962305       -0.1986916705
 C         -5.2694302992        0.5144593298        1.0412102695
 C         -5.3949025192        1.7421081994        1.6700386303
 C         -4.9161606490        2.8874051097        1.0516567811
 C         -4.3166582589        2.8147836305       -0.1956783588
 C         -4.1870135089        1.5883785709       -0.8280244197
 H         -3.7248165788        1.4857423415       -1.7959308097
 H         -3.9481689787        3.7058841408       -0.6784524482
 H         -5.0127871890        3.8423779794        1.5436671618
 H         -5.8638211593        1.8029580687        2.6388612103
 H         -5.6414624593       -0.3919355705        1.4901497689
 H         -4.2280345394       -2.6508060501        0.6531730675
 H         -2.9513573497       -2.5450783515        2.6143992977
 H         -0.9868928797       -1.6046186124        3.7771460386
 H          0.5500832106       -0.0911763518        2.5806327997
 H          0.5216464209        1.6839338095        0.6271819409
 C          0.1350535211        1.0591485509       -1.3796022195
 C         -0.7724845288        2.2020578712       -1.7171346189
 C          0.6988560713        2.3122669313       -1.9782124486
 H          1.0475097414        2.2852592719       -2.9998421286
 H          1.2889696013        2.9459206408       -1.3322813581
 H         -1.4320044787        2.0972784718       -2.5654339690
 H         -1.1868582088        2.7683427207       -0.8971838885
 H          0.1041582811        0.1764255713       -2.0092449601
