  62
        -98.94113556
 C         -1.6581065376       -0.0944528372        0.2121572678
 C         -2.6168718931       -0.7499191365       -0.6003183879
 C         -3.8839753492       -0.0277716923       -0.8002703593
 C         -4.0505370224        1.1874700021       -0.2483964880
 C         -5.3073283928        2.0034860279       -0.3312424445
 C         -6.2385917749        1.7098316905        0.8532070620
 C         -6.4692555836        0.2193436045        1.1028970741
 H         -5.5290609176       -0.2397379412        1.4172956912
 H         -7.1640248230        0.1338081014        1.9413178024
 C         -7.0278680183       -0.5477290080       -0.1037871233
 H         -7.8339852285       -1.1999221326        0.2389783814
 H         -7.4603405765        0.1520250138       -0.8199229539
 C         -6.0084910153       -1.4378189802       -0.8174018836
 H         -6.5512201808       -2.0917541844       -1.5053035103
 H         -5.5058643576       -2.0772795833       -0.0872007019
 C         -4.9366096548       -0.7038874357       -1.6329213637
 H         -4.4086015517       -1.4499116411       -2.2343750034
 H         -5.4125307385        0.0087971934       -2.3096076167
 H         -7.1955085337        2.2022589090        0.6706808957
 H         -5.7997743340        2.1435826433        1.7547779136
 H         -5.8153640760        1.7857848536       -1.2686694740
 H         -5.0336204819        3.0597462812       -0.3132598662
 O         -3.0947701469        1.7987843558        0.4970500384
 C         -1.8879192466        1.1712935808        0.7552613098
 O         -1.1084874799        1.8329024056        1.4707992456
 O         -2.4355837020       -1.8711822465       -1.1418627096
 C         -0.3295865118       -0.7351215250        0.5534745547
 C          0.6696644424       -0.7277501413       -0.5822028690
 C          0.3634738184       -0.2949795054       -1.8653657606
 C          1.3317483065       -0.2851849637       -2.8546755825
 C          2.6327780038       -0.6619498288       -2.5763338331
 C          2.9542275709       -1.0836011990       -1.2918234754
 C          1.9699004381       -1.1381594107       -0.3171666608
 H          2.2397588912       -1.4936093214        0.6635008783
 N          4.2735477238       -1.4196983170       -0.9381569637
 S          4.8902331995       -0.6908343140        0.4436451741
 O          6.3245671848       -0.7099150853        0.2629727640
 O          4.3913383224       -1.3604271179        1.6168996364
 C          4.2646306111        0.9775218485        0.3568785035
 C          4.8563870683        1.8480234512       -0.5375273931
 C          4.3114964195        3.1105353025       -0.7033624292
 C          3.1746410480        3.4709507176        0.0049497152
 C          2.5922303936        2.5879543397        0.9009598646
 C          3.1470341850        1.3314668546        1.0850892557
 H          2.7250421669        0.6283438952        1.7839260758
 H          1.6960066756        2.8555993096        1.4395882774
 H          2.7372955235        4.4463698323       -0.1393474565
 H          4.7648362708        3.8054551355       -1.3917741547
 H          5.7355426796        1.5291766805       -1.0738465959
 H          4.9338786440       -1.3544831704       -1.6999631650
 H          3.3912729122       -0.6282048581       -3.3431558719
 H          1.0716530600        0.0410820032       -3.8502094645
 H         -0.6409095236        0.0303195956       -2.0913229882
 H          0.0980347782       -0.1177410001        1.3578556010
 C         -0.5180856353       -2.1456253589        1.0868632537
 C          0.3094184517       -2.6529836127        2.2274327633
 C         -1.1405948557       -2.3381335025        2.4364553639
 H         -1.8366442084       -3.1518282686        2.5736319763
 H         -1.3920339798       -1.4493946173        2.9980317490
 H          0.6163998977       -3.6878971799        2.2176586121
 H          1.0373924589       -1.9889660582        2.6703341279
 H         -0.7947571314       -2.8510188856        0.3127713903
