  62
        -98.94023992
 C          1.7964726104        0.7110540402        0.8733216287
 C          2.0725239699        0.3122638188       -0.4579504910
 C          3.4802467198        0.4141879981       -0.8764457415
 C          4.3993930801        0.8779434288       -0.0113995123
 C          5.8700929601        0.9807107083       -0.2917473728
 C          6.6059236200       -0.2955048614        0.1400835683
 C          5.9539079396       -1.5840096418       -0.3618812602
 H          6.5747766495       -2.4160363416       -0.0223604196
 H          4.9767851397       -1.6985818712        0.1132580802
 C          5.7867525391       -1.6592398133       -1.8860101901
 H          6.0971497988       -2.6506021537       -2.2229250592
 H          6.4441829791       -0.9337549140       -2.3665640910
 C          4.3537920690       -1.4498456436       -2.3797021199
 H          3.6765531190       -2.1112357529       -1.8330669590
 H          4.3127458486       -1.7388370146       -3.4332791896
 C          3.8139353893       -0.0177263334       -2.2766349112
 H          4.5193453593        0.6762003960       -2.7381055021
 H          2.8741707991        0.0227091563       -2.8349148509
 H          6.6314927903       -0.3276373403        1.2318755683
 H          7.6342315499       -0.2409787920       -0.2219141021
 H          6.2694472604        1.8269296487        0.2698885362
 H          6.0213525898        1.1584630772       -1.3545729630
 O          4.0950731406        1.2604427702        1.2554890575
 C          2.7997439807        1.1597303309        1.7359178579
 O          2.6703998011        1.4912553121        2.9314342576
 O          1.2031177896       -0.1100473018       -1.2622465303
 C          0.3990881705        0.6089028811        1.4596035392
 C         -0.2283730998       -0.7124477992        1.0865327107
 C          0.4748854900       -1.8866596990        1.3474315417
 C         -0.0561714203       -3.1176590193        1.0192781631
 C         -1.3165678405       -3.2096339796        0.4536226336
 C         -2.0338467104       -2.0476434997        0.2062663526
 C         -1.4852523800       -0.8098637295        0.5131596912
 H         -2.0511008899        0.0768471904        0.2850050505
 N         -3.3175303005       -2.0924807501       -0.3607926670
 S         -4.5193135102       -1.1330482992        0.3013817324
 O         -4.3235683097       -0.9447305378        1.7204584522
 O         -5.7574337204       -1.7738680393       -0.0892941866
 C         -4.3920766501        0.4268760300       -0.5467156292
 C         -4.2971291405        0.4287935386       -1.9241335492
 C         -4.2391557005        1.6435087679       -2.5882423905
 C         -4.2826542500        2.8286454286       -1.8694027617
 C         -4.3807126596        2.8096939300       -0.4863510216
 C         -4.4369792497        1.5977636207        0.1838829696
 H         -4.5049476994        1.5360006418        1.2585490697
 H         -4.4114526693        3.7319812006        0.0719437174
 H         -4.2367863300        3.7729453281       -2.3888618826
 H         -4.1592783608        1.6633592468       -3.6631615005
 H         -4.2668194208       -0.5109946120       -2.4494772483
 H         -3.6573724108       -3.0204627702       -0.5681766859
 H         -1.7369963308       -4.1720297298        0.2033362447
 H          0.5095606396       -4.0167620192        1.2140261938
 H          1.4553048602       -1.8177586388        1.8005675813
 H          0.5498071708        0.6045259522        2.5527299092
 C         -0.4945304393        1.8019590809        1.1511852583
 C          0.0842600908        3.1442870605        0.8203261967
 C         -0.6276421496        2.3552086596       -0.2349839123
 H         -1.6009077097        2.6923266494       -0.5605941523
 H         -0.0440251100        1.8869332887       -1.0111493320
 H         -0.3988970389        4.0209619910        1.2247063260
 H          1.1600551208        3.2269207602        0.7635563963
 H         -1.3894307192        1.8059226017        1.7670598785
