  62
        -98.94553426
 C          2.6508162772        1.0241984775        0.2514110108
 C          2.4772183400        0.2685694659       -0.9340029733
 C          3.0382863486       -1.0901681614       -0.9138295562
 C          3.6820426937       -1.5230329515        0.1853463188
 C          4.2518206458       -2.9004066371        0.3605620119
 C          3.2286024586       -3.8449541425        1.0068152839
 C          1.8495369255       -3.8084816330        0.3468265594
 H          1.2179483862       -4.5330803046        0.8661725806
 H          1.3961941845       -2.8261908106        0.5049741723
 C          1.8556295560       -4.1207967432       -1.1560489674
 H          1.0366320306       -4.8102808544       -1.3711366839
 H          2.7854525941       -4.6233351745       -1.4262446942
 C          1.6561299435       -2.9011267064       -2.0581722397
 H          0.7725413398       -2.3443375331       -1.7308934488
 H          1.4558741665       -3.2591703003       -3.0717778755
 C          2.8442732231       -1.9335071702       -2.1417492006
 H          3.7541607319       -2.4887020433       -2.3790685108
 H          2.6434454167       -1.2328144380       -2.9573419275
 H          3.1123137438       -3.5654979962        2.0565996104
 H          3.6231602750       -4.8617593161        0.9676144154
 H          5.1276856079       -2.8309404847        1.0078177165
 H          4.5572396066       -3.2872997430       -0.6093908082
 O          3.8431494507       -0.7613570606        1.2983192972
 C          3.3070991118        0.5149876419        1.3703797348
 O          3.4763234169        1.0834181375        2.4691549013
 O          1.8853083346        0.7036646960       -1.9551726374
 C          2.0456017570        2.4138236374        0.3539178934
 C          0.5533684374        2.3103861913        0.1475533010
 C         -0.1632814166        3.1022801103       -0.7387195591
 C         -1.5245772364        2.9106345763       -0.9052747411
 C         -2.1986277047        1.9351202099       -0.1940690997
 C         -1.4929867317        1.1461921615        0.7053245351
 C         -0.1334567392        1.3454155908        0.8749131787
 H          0.4161752539        0.7231088351        1.5726656102
 N         -2.1721405075        0.1440254966        1.4327687778
 S         -2.8138689158       -1.1082085682        0.5039831899
 O         -2.9188487757       -2.2349488677        1.4064248975
 O         -2.0473139630       -1.3199901231       -0.7020368656
 C         -4.4469902442       -0.5229725294        0.1075547748
 C         -4.8132811093       -0.3323080575       -1.2100757071
 C         -6.0883311082        0.1358198688       -1.4885394218
 C         -6.9677311515        0.4035678964       -0.4504380629
 C         -6.5845511244        0.2037241433        0.8677453236
 C         -5.3122180311       -0.2649451142        1.1530162215
 H         -4.9732675041       -0.4375312139        2.1608068172
 H         -7.2712235990        0.4130744388        1.6720168217
 H         -7.9578680044        0.7704868115       -0.6701141298
 H         -6.3882789190        0.2914656799       -2.5123792574
 H         -4.0920483171       -0.5465594197       -1.9826559187
 H         -1.6068385029       -0.2525003892        2.1711800649
 H         -3.2564309910        1.7779408071       -0.3284376298
 H         -2.0672418957        3.5271974271       -1.6053808987
 H          0.3464261191        3.8593589523       -1.3114375495
 H          2.2279385251        2.7513602218        1.3847616098
 C          2.7306539842        3.3670423681       -0.6016021607
 C          2.7802454658        4.8329703538       -0.2952303581
 C          4.0222317237        4.0018610548       -0.1855780413
 H          4.7969254555        4.1272607231       -0.9269463106
 H          4.3964225369        3.7633915790        0.7996535647
 H          2.7055716188        5.5337440783       -1.1128669490
 H          2.3140867893        5.1683919008        0.6187962215
 H          2.6345054243        3.0592757937       -1.6362356295
