  62
        -98.94345431
 C         -1.6042372564       -1.4126250835        0.5261497359
 C         -1.6126223957       -0.0812295371        1.0221795872
 C         -2.8551398091        0.6744733803        0.8378425216
 C         -3.9181550491        0.0758282669        0.2714624308
 C         -5.2728574239        0.6940801277        0.0552241541
 C         -5.3848556176        1.5174969257       -1.2350412618
 C         -4.6381954382        2.8517286288       -1.2192745575
 H         -4.9729566984        3.4163052682       -2.0918002439
 H         -4.9288054233        3.4183424136       -0.3341543420
 C         -3.1095667817        2.7196332158       -1.2714681685
 H         -2.8420378023        1.7153669109       -1.6084951756
 H         -2.7092715346        3.4197454802       -2.0079969698
 C         -2.4002629098        3.0019735626        0.0531997590
 H         -1.3308808389        2.8292021041       -0.0906001471
 H         -2.5446455208        4.0491158704        0.3277259524
 C         -2.8633939751        2.1226373336        1.2222049067
 H         -3.8561749358        2.4251191062        1.5547109934
 H         -2.1598955685        2.2506796917        2.0481141805
 H         -5.0271828037        0.9093027177       -2.0691676984
 H         -6.4455026907        1.7193372424       -1.4020938792
 H         -5.9861665389       -0.1311358317       -0.0004061919
 H         -5.5304470068        1.3188692663        0.9108930636
 O         -3.8808953069       -1.2088647739       -0.1660769682
 C         -2.7164272043       -1.9658851314       -0.1077383023
 O         -2.8320468034       -3.0856965547       -0.6439290875
 O         -0.6248438275        0.4457674867        1.5979457492
 C         -0.2907655761       -2.1622093968        0.6682007607
 C          0.5684599212       -1.9071336262       -0.5469406004
 C          0.1592492016       -2.3021563293       -1.8164100331
 C          0.9493978239       -2.0300572423       -2.9177960481
 C          2.1518802591       -1.3592404075       -2.7770715374
 C          2.5712587308       -0.9645780393       -1.5111351248
 C          1.7776531630       -1.2430940762       -0.4064432671
 H          2.1104404931       -0.9375276628        0.5730892688
 N          3.7922936823       -0.3087107423       -1.3461946507
 S          4.2421370504        0.5144640581        0.0251138385
 O          5.4410780621        1.2181791298       -0.3786969064
 O          4.3934021101       -0.4008764153        1.1294713264
 C          2.9620435628        1.7045561485        0.3762116656
 C          2.4424705797        1.7848871492        1.6511007097
 C          1.4965985857        2.7567141705        1.9321077742
 C          1.0894245796        3.6285734174        0.9360639158
 C          1.6157915048        3.5317734626       -0.3433949894
 C          2.5634372045        2.5632797328       -0.6289761202
 H          2.9988147621        2.4713345754       -1.6107807212
 H          1.2891304987        4.2083697633       -1.1171868783
 H          0.3553097562        4.3871399177        1.1583960417
 H          1.0770918520        2.8224847809        2.9226367153
 H          2.7815811542        1.0855049171        2.3986912773
 H          4.2623354402       -0.0035722586       -2.1832395596
 H          2.7652550241       -1.1459521226       -3.6388817786
 H          0.6237425376       -2.3395209371       -3.8995709656
 H         -0.7857215823       -2.8121899226       -1.9290025326
 H          0.2151219911       -1.7015825381        1.5283180116
 C         -0.4261419780       -3.6462266116        0.9373293115
 C          0.7398104912       -4.3745524842        1.5336749947
 C         -0.4920083428       -4.1324192994        2.3524858515
 H         -1.1356266876       -4.9691274819        2.5787609094
 H         -0.4436657171       -3.3939584006        3.1396223704
 H          0.9451666328       -5.3795357471        1.1984173190
 H          1.6250310544       -3.7996160409        1.7634208356
 H         -1.0264214275       -4.1695458360        0.2053983921
