  62
        -98.94093793
 C         -2.3073746362        0.8371858592        0.1542166666
 C         -3.5942893647        1.2170813176       -0.2968422985
 C         -4.7185612967        0.4700051459        0.2770484026
 C         -4.4840115681       -0.4918633123        1.1883467340
 C         -5.5272312104       -1.3254192471        1.8822332322
 C         -5.9892623857       -2.5464263051        1.0748874317
 C         -6.8796596057       -2.2317690002       -0.1279370053
 H         -7.3041221208       -3.1784634760       -0.4678526712
 H         -7.7084321815       -1.5990308770        0.1909847035
 C         -6.1463652025       -1.5698547415       -1.3029631685
 H         -6.4356270073       -2.0594852302       -2.2356272808
 H         -5.0695088455       -1.7137485108       -1.1869675569
 C         -6.4311868782       -0.0769565833       -1.4675143981
 H         -5.8342130036        0.2960778096       -2.3036319551
 H         -7.4849259477        0.0698855862       -1.7142414669
 C         -6.0964302310        0.7693685191       -0.2321709528
 H         -6.1215789244        1.8228982708       -0.5208637043
 H         -6.8361098663        0.6026719715        0.5503885589
 H         -5.1070209202       -3.0982019187        0.7419272493
 H         -6.5484669223       -3.1933858193        1.7547422405
 H         -6.3881376670       -0.7036922261        2.1294005391
 H         -5.0741453669       -1.6783620015        2.8111194001
 O         -3.2313849465       -0.8140926800        1.6104299345
 C         -2.1131426635       -0.1759217048        1.0924534115
 O         -1.0292868900       -0.5934482436        1.5455073471
 O         -3.7920084172        2.1328602809       -1.1394427627
 C         -1.0925488406        1.5556073352       -0.4034113134
 C         -0.1517720293        0.5638939370       -1.0412080249
 C         -0.6582702125       -0.3330149663       -1.9789653882
 C          0.1623880893       -1.2705270262       -2.5736462539
 C          1.5047695103       -1.3356409649       -2.2432444442
 C          2.0250682470       -0.4350586009       -1.3220312947
 C          1.1991312162        0.5154515082       -0.7365091216
 H          1.6237460028        1.1976470704       -0.0209534101
 N          3.4006410857       -0.4523211890       -1.0182574025
 S          3.9346506412       -0.2870233037        0.5752125616
 O          3.4748449513       -1.3986635692        1.3793962091
 O          3.6183612855        1.0332139125        1.0546375333
 C          5.6937340423       -0.4146781601        0.3059453691
 C          6.3578161421       -1.5836241411        0.6241618397
 C          7.7214882353       -1.6658601589        0.3882888558
 C          8.3931816707       -0.5847824823       -0.1617629576
 C          7.7127897957        0.5825637266       -0.4759654036
 C          6.3501953003        0.6715501067       -0.2411998533
 H          5.7817479024        1.5601122254       -0.4603745286
 H          8.2389143231        1.4219704568       -0.9012153181
 H          9.4541544381       -0.6510593032       -0.3441249083
 H          8.2533326006       -2.5707812453        0.6344744194
 H          5.7954690090       -2.3954029051        1.0570727155
 H          3.8614927647       -1.2536701921       -1.4310628821
 H          2.1443415580       -2.0774532066       -2.6977705146
 H         -0.2460815111       -1.9639959810       -3.2935837697
 H         -1.7104465364       -0.2893373127       -2.2269217848
 H         -1.4809905012        2.2196462168       -1.1904594062
 C         -0.4437288746        2.4037746398        0.6695935990
 C          0.3208586012        3.6375531861        0.2971027261
 C         -1.0112811635        3.7567878725        0.9726574361
 H         -1.0435430311        4.0829224751        2.0014346889
 H         -1.8571029676        4.0807632330        0.3838855687
 H          1.2102311187        3.8770672777        0.8605492973
 H          0.3813793133        3.8884554434       -0.7511066298
 H         -0.0822771875        1.8140901168        1.5060897039
