  62
        -98.94012748
 C         -2.4867708564       -1.2669963360       -0.1099446132
 C         -2.3007478898       -0.0343353589       -0.7809719036
 C         -3.5148805747        0.7684117778       -0.9916351695
 C         -4.7005585514        0.2981315875       -0.5634084590
 C         -6.0011259120        1.0416352109       -0.6527890808
 C         -6.2484169293        1.8775121569        0.6111524570
 C         -5.0555196714        2.7385585924        1.0269136710
 H         -5.3551608549        3.3035584072        1.9121645650
 H         -4.2304629754        2.0874671362        1.3254110252
 C         -4.5647707629        3.7091275291       -0.0563574474
 H         -5.3382865785        3.8416491874       -0.8135915984
 H         -4.3872887452        4.6846991038        0.4009992360
 C         -3.2588801850        3.2930531166       -0.7362159121
 H         -2.5024351550        3.0697489639        0.0211121117
 H         -2.8929280811        4.1414659929       -1.3208862594
 C         -3.3548003174        2.0918158850       -1.6852654554
 H         -4.1615062238        2.2523298967       -2.4034901347
 H         -2.4108336146        2.0287639393       -2.2352269296
 H         -7.1167471916        2.5157108574        0.4382786195
 H         -6.4830466146        1.1986579056        1.4341363336
 H         -5.9857462275        1.6851755684       -1.5300789271
 H         -6.8069585216        0.3138214070       -0.7599590478
 O         -4.8414289512       -0.9013916687        0.0564686120
 C         -3.7423578968       -1.7043020889        0.3123878567
 O         -4.0082094636       -2.7643938073        0.9139295546
 H          1.3633808083       -1.4782154074       -0.2586881737
 C          0.9840766639       -1.1336254674        0.6876674435
 C         -0.3231101377       -1.3963861408        1.0634996267
 C         -0.7737892332       -0.9277572632        2.2958648747
 C          0.0594548807       -0.2008658771        3.1225108540
 C          1.3566358966        0.0826614568        2.7316590578
 C          1.8193936257       -0.3864667697        1.5085345775
 N          3.1506811008       -0.1437168246        1.1160437771
 S          3.4752772974        0.3690353231       -0.4621886116
 O          2.7935719247        1.6146603040       -0.7363172270
 O          3.2392918438       -0.7190202083       -1.3750618198
 C          5.2303264748        0.6588912668       -0.3212443389
 C          5.7010336714        1.9503257546       -0.1802392129
 C          7.0652309301        2.1566770078       -0.0464002718
 C          7.9306363303        1.0733532275       -0.0529437754
 C          7.4434788061       -0.2174815956       -0.1964198742
 C          6.0809553132       -0.4301471122       -0.3319855688
 H          5.6575004351       -1.4132052086       -0.4547514161
 H          8.1198195853       -1.0569604889       -0.2038670547
 H          8.9917142402        1.2362383645        0.0513515467
 H          7.4466324440        3.1592921959        0.0616038284
 H          4.9911791094        2.7619183978       -0.1896323383
 H          3.6185762240        0.4803882776        1.7617146407
 H          2.0058280490        0.6622822320        3.3709348723
 H         -0.3045309844        0.1576254278        4.0738213197
 H         -1.7936387364       -1.1386011189        2.5901128500
 C         -1.2929799514       -2.1569988786        0.1918774801
 H         -1.6854150581       -3.0033319744        0.7743458353
 C         -0.6835387885       -2.6889938398       -1.0869649938
 C          0.0975628784       -3.9672174939       -1.0659623969
 C         -1.2568984005       -3.9267147923       -1.7059110705
 H         -1.3228776020       -3.9809740508       -2.7822192666
 H         -2.0810319554       -4.4009171192       -1.1926647342
 H          0.9664717997       -4.0470482165       -1.7016255255
 H          0.1948386798       -4.4759615032       -0.1187684278
 H         -0.3548290191       -1.9023939487       -1.7571788496
 O         -1.1814724669        0.3801580946       -1.1836900991
