  62
        -98.94660912
 C         -2.4939950099       -0.3347644619       -0.0313199571
 C         -2.3008031808       -1.4755975104       -0.8436891192
 C         -1.6368912051       -2.6133954384       -0.2007936484
 C         -1.2594834489       -2.5227859985        1.0875838539
 C         -0.5441430978       -3.5870195319        1.8745931602
 C          0.9753056882       -3.5837052058        1.6540971129
 C          1.4379660203       -4.1609888750        0.3152249586
 H          0.9649827792       -5.1307245252        0.1537432162
 H          2.5136630795       -4.3297732640        0.3959882370
 C          1.1747030711       -3.2453515898       -0.8881092288
 H          2.0652651503       -3.2180810971       -1.5210710187
 H          1.0005917295       -2.2276008523       -0.5312105572
 C          0.0064607678       -3.6761108738       -1.7755204134
 H          0.2411600813       -4.6307750795       -2.2526888408
 H         -0.1197857352       -2.9274228117       -2.5618623373
 C         -1.3325147320       -3.8176913223       -1.0411909682
 H         -1.3307048250       -4.7171303380       -0.4258250153
 H         -2.1243700620       -3.9060808955       -1.7896023053
 H          1.4246133095       -4.1724793786        2.4576993719
 H          1.3347971720       -2.5552187664        1.7479091453
 H         -0.9510206634       -4.5688290026        1.6294525418
 H         -0.7414270646       -3.3800951617        2.9287283044
 O         -1.5070524453       -1.4253410502        1.8503813138
 C         -2.0873317086       -0.2939974450        1.3028680451
 O         -2.2094418391        0.6596188078        2.0986734846
 O         -2.6582769000       -1.5351174622       -2.0525143948
 C         -3.0660586821        0.9270352064       -0.6516571099
 C         -2.0798975142        2.0563160498       -0.4736473430
 C         -2.4500439315        3.3554832682       -0.1524284852
 C         -1.4849245800        4.3257748166        0.0582569320
 C         -0.1397830704        4.0147120461       -0.0135324084
 C          0.2403286595        2.7208445460       -0.3508620082
 C         -0.7283022626        1.7707613879       -0.6221575900
 H         -0.4236010013        0.7716936590       -0.8941781486
 N          1.6023557937        2.3481357563       -0.4263950877
 S          2.1104811687        1.0994344441        0.6011353807
 O          1.2809019966       -0.0615031186        0.4278729218
 O          2.2360917291        1.6156849276        1.9500308750
 C          3.7324695062        0.7901849838       -0.0704294523
 C          4.8284090347        1.4387410871        0.4653120075
 C          6.0783268329        1.2141490277       -0.0900562824
 C          6.2097622574        0.3510833182       -1.1673303154
 C          5.1003459106       -0.2940217971       -1.6933091571
 C          3.8481220143       -0.0728161339       -1.1425529752
 H          2.9591432975       -0.5571298325       -1.5128279879
 H          5.2052810986       -0.9669742366       -2.5290472739
 H          7.1830867512        0.1772636026       -1.5981855035
 H          6.9429589154        1.7115888644        0.3188113356
 H          4.6815109943        2.0902706315        1.3115915944
 H          2.2087189507        3.1410949753       -0.2518781352
 H          0.6114094150        4.7622077356        0.1952785231
 H         -1.7852221603        5.3316855140        0.3105080933
 H         -3.4935731171        3.6062971439       -0.0514498622
 H         -3.1671096776        0.7094606047       -1.7258453232
 C         -4.4366683916        1.2334013283       -0.0849478203
 C         -5.4717070226        1.9175201913       -0.9262833224
 C         -5.6170394200        0.4637444919       -0.5946576708
 H         -6.3803711536        0.1656130099        0.1081758872
 H         -5.4325764841       -0.2619945832       -1.3731544426
 H         -6.1409367826        2.6185768532       -0.4506252332
 H         -5.2002434548        2.1801437565       -1.9375160141
 H         -4.4035153586        1.4577378224        0.9757189406
