  62
        -98.93069371
 C          2.3194448218       -0.9188843209       -0.8394063226
 C          3.3660978928       -0.9014911394        0.1139926645
 C          4.3968333187        0.1306456789       -0.0836010007
 C          4.2944173022        0.9970979274       -1.1063651228
 C          5.2780516512        2.0741634873       -1.4811206973
 C          5.4635420863        3.2155713899       -0.4627613681
 C          6.6269868780        3.0084487778        0.5149056471
 H          7.3520442068        2.3323645135        0.0601522124
 H          7.1372431797        3.9627224778        0.6606721106
 C          6.2455945835        2.4892621488        1.9045497420
 H          5.8383962286        3.3136929394        2.4943802774
 H          7.1597138197        2.1525438401        2.3983915335
 C          5.2205214221        1.3553480510        1.9347529380
 H          4.2235271323        1.7542364209        1.7321879150
 H          5.1884414420        0.9510375445        2.9484896208
 C          5.4953067044        0.2144271639        0.9361824591
 H          6.4595402963        0.3525840620        0.4493890056
 H          5.5074573592       -0.7429195542        1.4608250143
 H          5.6598207569        4.1221274612       -1.0374645156
 H          4.5322169227        3.3733404011        0.0805657629
 H          6.2455822973        1.6088444038       -1.6829770299
 H          4.9068008508        2.4913415182       -2.4194195240
 O          3.2539580554        0.9650633977       -1.9840080111
 C          2.2471590662        0.0252850538       -1.8673694157
 O          1.3536523052        0.1241627794       -2.7334684777
 O          3.4652200412       -1.7043318061        1.0777918572
 C          1.1794403343       -1.9250017182       -0.7863636710
 C          0.1875736021       -1.4916142527        0.2670817976
 C          0.3496455288       -1.7961768310        1.6134952710
 C         -0.5752764004       -1.3564253516        2.5440312327
 C         -1.6733326074       -0.6091485730        2.1569970809
 C         -1.8412684462       -0.2946839285        0.8147097945
 C         -0.9154511219       -0.7414358558       -0.1187196761
 H         -1.0369018418       -0.4866959515       -1.1637960438
 N         -2.9434443303        0.4839354651        0.4125984650
 S         -4.4475388653        0.0634570048        1.0599849296
 O         -4.5625068773        0.6594996050        2.3674883360
 O         -4.6282261628       -1.3699395408        1.0027675456
 C         -5.5560377771        0.8759837064       -0.0735131966
 C         -6.1085893273        0.1520225119       -1.1129049540
 C         -6.9562646614        0.7950447625       -2.0011343882
 C         -7.2325765367        2.1440976648       -1.8373509515
 C         -6.6696917658        2.8574108008       -0.7893416767
 C         -5.8221982792        2.2204884794        0.1030746916
 H         -5.3699946935        2.7314702899        0.9369658128
 H         -6.8893497906        3.9054351745       -0.6645252403
 H         -7.8935165697        2.6417918594       -2.5292871780
 H         -7.3976046739        0.2425379890       -2.8149828850
 H         -5.8736838372       -0.8971374253       -1.1959014524
 H         -2.9943606284        0.5737059843       -0.5932642981
 H         -2.4040187739       -0.2698466987        2.8736773501
 H         -0.4398667378       -1.5987886781        3.5875907578
 H          1.2149863395       -2.3560334797        1.9294824702
 H          0.6785754641       -1.8526203650       -1.7612267764
 C          1.6524891336       -3.3516321956       -0.5987926564
 C          0.6987803630       -4.4708002174       -0.8857783997
 C          1.8560905698       -4.2178529418       -1.8036494245
 H          2.6790192779       -4.9166665893       -1.8016358748
 H          1.6541991202       -3.7847310531       -2.7727303297
 H          0.7240546791       -5.3445590418       -0.2530116092
 H         -0.2903971265       -4.2071353550       -1.2295772990
 H          2.3461713380       -3.4765158318        0.2213294591
