  62
        -98.93775521
 C         -1.8315691693       -1.0839927707       -0.1356225911
 C         -2.4022840992        0.0326873297       -0.7899439005
 C         -3.8714738092        0.1328951897       -0.7381001505
 C         -4.5790591293       -0.8241916107       -0.1138708411
 C         -6.0764872593       -0.9392423807        0.0235514788
 C         -6.8504704993        0.3347046091        0.3933240995
 C         -6.0843875193        1.3295968985        1.2775244401
 H         -6.7109531993        1.6015021180        2.1290717403
 H         -5.1815355293        0.8619671082        1.6737916699
 C         -5.7106344992        2.6186043989        0.5412407209
 H         -6.5662686292        2.9395030093       -0.0570366589
 H         -5.5167637893        3.4007697185        1.2792041314
 C         -4.4775778892        2.5310444495       -0.3579077790
 H         -3.5750193092        2.4479132791        0.2539861010
 H         -4.3997749392        3.4684888998       -0.9140172085
 C         -4.4678541992        1.3633856401       -1.3579369898
 H         -5.4624752992        1.1748888703       -1.7549521899
 H         -3.8068625791        1.6358919406       -2.1853108296
 H         -7.1694980492        0.8433475996       -0.5153984902
 H         -7.7576709593        0.0144756988        0.9084450292
 H         -6.4747908092       -1.3408262901       -0.9125810215
 H         -6.2332526893       -1.6992803912        0.7925216383
 O         -3.9858721593       -1.8953834711        0.4855683283
 C         -2.6103982093       -2.0475640411        0.5021363983
 O         -2.2099932294       -3.0611645315        1.1096883777
 H          1.8561051508        0.1544600798       -1.0760707702
 C          1.4464204508        0.5524140092       -0.1631286899
 C          0.3462341907       -0.0382581811        0.4377733196
 C         -0.1489378293        0.5191761782        1.6147939300
 C          0.4199729807        1.6554383878        2.1542248607
 C          1.5094359907        2.2517277982        1.5430128011
 C          2.0222017007        1.6950958189        0.3787099508
 N          3.1268499908        2.2749499293       -0.2615654988
 S          4.2965543408        1.3033891797       -0.9473366693
 O          5.4828013408        2.1323949797       -0.9764485788
 O          3.8560086509        0.7969472404       -2.2221867897
 C          4.5236017107       -0.0433364510        0.2021513099
 C          4.4405010307       -1.3446433108       -0.2469128409
 C          4.6185687407       -2.3802823813        0.6568164384
 C          4.8723825306       -2.0971340021        1.9894406086
 C          4.9578802806       -0.7834703924        2.4251417894
 C          4.7846102007        0.2550711581        1.5252479501
 H          4.8554023707        1.2851342680        1.8340761007
 H          5.1580363105       -0.5667429430        3.4620701196
 H          5.0059387005       -2.9047091026        2.6918608181
 H          4.5561902906       -3.4022256211        0.3178448778
 H          4.2349529708       -1.5211182701       -1.2900543911
 H          3.5251460108        3.0727358390        0.2106254817
 H          1.9504119107        3.1455992879        1.9571013317
 H          0.0147859406        2.0816682173        3.0596463609
 H         -1.0006012194        0.0539173479        2.0928868296
 C         -0.3247650793       -1.2667668607       -0.1256362711
 H         -0.1244261093       -2.1098275212        0.5521142484
 C          0.1554394308       -1.6344845699       -1.5142246513
 C          1.3513867008       -2.5180936098       -1.6941971218
 C         -0.0201225992       -3.0440641296       -1.9904729922
 H         -0.3012705292       -3.2095405990       -3.0197505723
 H         -0.4603815193       -3.7475891600       -1.2986550127
 H          1.8461172407       -2.8727976004       -0.8028160020
 H          2.0147633908       -2.3189199793       -2.5228777417
 H         -0.0070977392       -0.8408436695       -2.2351496309
 O         -1.7234291592        0.9037040301       -1.3935028599
