  62
        -98.94496042
 C         -2.0635756630       -1.3445798473        0.0248202862
 C         -2.6380149075       -0.6725482123        1.1298605450
 C         -3.7942948964        0.1791605824        0.8313919265
 C         -4.2428721328        0.2757362327       -0.4336671733
 C         -5.4207645705        1.0910501653       -0.8941437219
 C         -5.0906574180        2.5658164145       -1.1629558314
 C         -4.8449323689        3.4156048746        0.0845229309
 H         -5.6778056328        3.2916602865        0.7773395089
 H         -4.8392511722        4.4596542207       -0.2348502564
 C         -3.5238033626        3.1139025815        0.8059295482
 H         -3.0188152403        4.0517894632        1.0492139803
 H         -2.8620423534        2.5605389449        0.1347641898
 C         -3.6793676959        2.3300080015        2.1094180007
 H         -4.2324084539        2.9315845804        2.8340449713
 H         -2.6830742885        2.1436661199        2.5190285794
 C         -4.3882315690        0.9780898893        1.9522648667
 H         -5.4548443550        1.1297158206        1.7893964627
 H         -4.2512713751        0.4101097402        2.8756829189
 H         -5.9347948574        2.9949508793       -1.7075644121
 H         -4.2155845306        2.6147917876       -1.8155047599
 H         -6.2236166032        1.0244278564       -0.1594830916
 H         -5.7644261117        0.6404717896       -1.8276766811
 O         -3.6654620702       -0.3898803282       -1.4684737920
 C         -2.5484088586       -1.1916101951       -1.2744104485
 O         -2.0982560014       -1.7025012961       -2.3165198784
 O         -2.1999247049       -0.7736557739        2.3079664616
 C         -0.8428917889       -2.2179528919        0.2529469103
 C          0.3435439825       -1.6327439736       -0.4739315304
 C          1.1782718191       -2.3685923368       -1.3036262383
 C          2.2403725160       -1.7576842430       -1.9493599923
 C          2.4990771450       -0.4111661137       -1.7760471986
 C          1.6826009449        0.3301147783       -0.9300282884
 C          0.6221495127       -0.2840664389       -0.2828233609
 H         -0.0144668187        0.2961242134        0.3738982747
 N          1.9433009368        1.6960016846       -0.7323176491
 S          3.5293471061        2.1787209485       -0.5105070293
 O          3.4468890522        3.4009965080        0.2577901190
 O          4.1890869761        2.2825887371       -1.7881752886
 C          4.2836620943        0.8822694987        0.4554981537
 C          3.7515103780        0.6063719176        1.6995680330
 C          4.3027184047       -0.4175307782        2.4522393265
 C          5.3715493585       -1.1446990077        1.9504888962
 C          5.8980649618       -0.8517198141        0.7022927219
 C          5.3492390228        0.1702688132       -0.0559000750
 H          5.7256347197        0.4298544155       -1.0319028310
 H          6.7304781069       -1.4172566909        0.3158653334
 H          5.7957004197       -1.9435868467        2.5379281113
 H          3.8939895291       -0.6458620012        3.4235594277
 H          2.9231854463        1.1930343311        2.0640973210
 H          1.3251356060        2.1435455403       -0.0724787405
 H          3.3083856686        0.0816057546       -2.2897455790
 H          2.8730646438       -2.3388203395       -2.6024917615
 H          0.9912864501       -3.4184383363       -1.4560601504
 H         -0.6422236518       -2.1576043425        1.3331422952
 C         -1.1332846795       -3.6587581591       -0.1074190513
 C         -0.3830359691       -4.7683624662        0.5650879907
 C         -1.8246009788       -4.5301675196        0.8966757350
 H         -2.5611921829       -5.2368904335        0.5450098267
 H         -2.0656671991       -4.0904130965        1.8535646818
 H         -0.1299341178       -5.6440928588       -0.0130950696
 H          0.3572772747       -4.4960975672        1.3018211565
 H         -1.4091270081       -3.7809057204       -1.1485867226
