  62
        -98.93920623
 C         -2.3096180330       -0.8802039744        0.6471807738
 C         -3.4069767567       -0.9309628873       -0.2475870169
 C         -4.4996154194        0.0125151062        0.0279557136
 C         -4.4308817182        0.8351024501        1.0890582919
 C         -5.4739224745        1.8355647422        1.5074558814
 C         -5.3816044321        3.1787759863        0.7704074123
 C         -5.8293170058        3.1509566354       -0.6915680653
 H         -6.8196962979        2.6996854955       -0.7581146051
 H         -5.9213832662        4.1888341356       -1.0177055808
 C         -4.8638767997        2.4208343124       -1.6358095722
 H         -3.8906461072        2.3128151007       -1.1508406497
 H         -4.7074556515        3.0230081436       -2.5336291539
 C         -5.3442221475        1.0432319227       -2.0923192916
 H         -4.5674628118        0.6017119510       -2.7216115051
 H         -6.2476551647        1.1517056238       -2.6964459164
 C         -5.6375068722        0.0658779400       -0.9467581562
 H         -6.5602367872        0.3455601956       -0.4393032523
 H         -5.7583706616       -0.9336713932       -1.3709380821
 H         -6.0134731172        3.8891495690        1.3085733920
 H         -4.3517881469        3.5388607067        0.8297949355
 H         -6.4675657471        1.4091986529        1.3670341698
 H         -5.3199046299        2.0162474268        2.5734863830
 O         -3.3730884435        0.8330711874        1.9444121345
 C         -2.2893844515       -0.0012861911        1.7345636474
 O         -1.3843783138        0.1204051174        2.5863979453
 O         -3.4981790096       -1.7167479482       -1.2263105142
 C         -1.0771660231       -1.7573879614        0.4903810994
 C         -0.1828289929       -1.2244084723       -0.6043392096
 C         -0.4923679566       -1.3846455733       -1.9511947910
 C          0.3560138024       -0.8921758037       -2.9258099519
 C          1.5322099932       -0.2502332707       -2.5815267173
 C          1.8431581531       -0.0718236618       -1.2383850078
 C          0.9824765838       -0.5526721984       -0.2617962983
 H          1.2306572162       -0.3996429052        0.7791124289
 N          3.0152932318        0.6022674601       -0.8584806425
 S          3.8127408827        0.0954070369        0.5408025256
 O          3.8371662765       -1.3490302315        0.5994813493
 O          3.2402695600        0.7740010042        1.6763644513
 C          5.4520605191        0.7248814138        0.2297315954
 C          6.4094077778       -0.1156791049       -0.3063909779
 C          7.6738363127        0.3886607236       -0.5673567252
 C          7.9571598348        1.7179296182       -0.2917731351
 C          6.9861857967        2.5492710379        0.2470088472
 C          5.7202499132        2.0512486754        0.5114222918
 H          4.9368282991        2.6551783074        0.9392114888
 H          7.2109175911        3.5812645055        0.4632532353
 H          8.9419278057        2.1079795305       -0.4948839534
 H          8.4317986537       -0.2559162259       -0.9823731159
 H          6.1461015490       -1.1440507927       -0.4949072770
 H          3.6552872615        0.7416053803       -1.6286459897
 H          2.2003810731        0.1197375351       -3.3444827578
 H          0.1042799411       -1.0213217355       -3.9676666933
 H         -1.4118753210       -1.8775205063       -2.2240992882
 H         -0.5256512907       -1.6638740015        1.4364602504
 C         -1.4097073460       -3.2212737201        0.2758958457
 C         -0.3329834402       -4.2398731783        0.4934847888
 C         -1.4751448681       -4.1372711673        1.4585663857
 H         -2.2187934613       -4.9200384350        1.4632570689
 H         -1.2832562368       -3.7109976839        2.4330117583
 H         -0.2908992045       -5.0946769504       -0.1638764550
 H          0.6355554104       -3.8806055709        0.8107051980
 H         -2.1158606189       -3.3937329204       -0.5250449265
