  62
        -98.94531624
 C         -2.4756583913       -1.1510751621       -0.0330296982
 C         -3.1034439535       -0.2743658856        0.8832702737
 C         -3.6503387321        0.9661528844        0.3196743834
 C         -3.5153437308        1.2042543114       -0.9979242222
 C         -3.9657123230        2.4557836006       -1.6930281100
 C         -2.8407012117        3.4995055207       -1.7354269383
 C         -2.1687991139        3.7401330062       -0.3832383793
 H         -1.6311180147        2.8354725314       -0.0863084412
 H         -1.4146607889        4.5173137296       -0.5277934552
 C         -3.1297085897        4.1586608363        0.7388462281
 H         -4.0642676454        4.5203031485        0.3086911043
 H         -2.6817134987        4.9888712019        1.2888871243
 C         -3.4331121969        3.0603175712        1.7596192122
 H         -2.4947925870        2.6314625240        2.1219925803
 H         -3.9336003647        3.5208068494        2.6155480342
 C         -4.3288426515        1.9170938457        1.2653880598
 H         -4.6160450087        1.3206479346        2.1363064884
 H         -5.2345254888        2.3280639695        0.8155695391
 H         -3.2530295369        4.4380771927       -2.1102512805
 H         -2.0755036785        3.1581978998       -2.4368570087
 H         -4.2480834418        2.1988185651       -2.7152447944
 H         -4.8333249233        2.8615060702       -1.1764558573
 O         -2.9001997451        0.3429285372       -1.8466919217
 C         -2.3423934320       -0.8416981165       -1.3872670907
 O         -1.7793952845       -1.5170370968       -2.2683014652
 H         -0.3371984854       -0.5172973890        1.5138787630
 C          0.2684377391       -1.2106323410        0.9419063678
 C         -0.3454508250       -2.3060007734        0.3446498293
 C          0.4401406854       -3.1865556890       -0.3852943293
 C          1.7992361857       -2.9594181728       -0.5252575761
 C          2.4014737772       -1.8596183044        0.0575942588
 C          1.6250909295       -0.9777401008        0.7986544192
 N          2.2307659157        0.1555786205        1.3875198542
 S          2.8077367832        1.2967902307        0.2885816877
 O          2.8317356977        2.5483940856        1.0148315550
 O          2.0433172158        1.2804833808       -0.9384580573
 C          4.4782944087        0.7658267982       -0.0171295923
 C          5.3601270922        0.7500482747        1.0460440485
 C          6.6626553084        0.3308466019        0.8277359823
 C          7.0589086092       -0.0606710830       -0.4426816732
 C          6.1620360009       -0.0357305822       -1.4998809107
 C          4.8567929824        0.3810621542       -1.2881079698
 H          4.1215079960        0.4107724325       -2.0765084690
 H          6.4716039873       -0.3403768349       -2.4867119191
 H          8.0729845869       -0.3874530070       -0.6103079916
 H          7.3631310384        0.3100047512        1.6469089024
 H          5.0108120106        1.0677740309        2.0141549945
 H          1.6227625660        0.6198623268        2.0488355893
 H          3.4577721873       -1.6772879950       -0.0555662206
 H          2.3969298607       -3.6478417046       -1.1028532765
 H         -0.0135701638       -4.0413211343       -0.8588148470
 C         -1.8420140183       -2.4280443263        0.4947476268
 H         -2.0774580123       -2.4470259782        1.5690274873
 C         -2.4335332836       -3.6575375030       -0.1574064945
 C         -2.3527995276       -4.9815702631        0.5403038157
 C         -3.6668979107       -4.2699091288        0.4332079916
 H         -4.4165256511       -4.6644285645       -0.2360407307
 H         -4.0747813307       -3.8090612902        1.3210849246
 H         -1.8680019292       -5.0080903079        1.5043636912
 H         -2.2017114311       -5.8694164533       -0.0544667745
 H         -2.3531899921       -3.6396338419       -1.2378758359
 O         -3.1940470226       -0.5140984060        2.1188574229
