  62
        -98.93904160
 C         -2.0421526914       -1.1632467722        0.3868774458
 C         -2.0508097679       -0.2557600425       -0.6970639422
 C         -2.7363187629        1.0339891675       -0.4776201670
 C         -3.2572763859        1.2944646529        0.7354634528
 C         -4.0311425423        2.5100171832        1.1698114156
 C         -5.4793165421        2.5069997369        0.6487611480
 C         -5.6467547268        2.0427782563       -0.7962331423
 H         -5.2116777879        1.0476506107       -0.9054238795
 H         -6.7181117453        1.9520666367       -0.9933661200
 C         -5.0560112893        2.9735803120       -1.8523371538
 H         -5.2868829697        2.5450522691       -2.8308153387
 H         -5.5512508983        3.9452135644       -1.7893855106
 C         -3.5453485802        3.1988054375       -1.7745364093
 H         -3.2437908642        3.7095986602       -2.6938522722
 H         -3.2932972525        3.8667297319       -0.9551650016
 C         -2.7081500526        1.9253079484       -1.6954209587
 H         -2.9588794569        1.2789233739       -2.5441283139
 H         -1.6531222950        2.1931773883       -1.8359247382
 H         -5.8883749296        3.5122733677        0.7608914096
 H         -6.0611929177        1.8329185268        1.2818796247
 H         -4.0539912191        2.4953550469        2.2618226696
 H         -3.5055691254        3.4101408202        0.8640282387
 O         -3.1762963361        0.4081939036        1.7700387366
 C         -2.5661721284       -0.8223663026        1.6317299887
 O         -2.5468680186       -1.5115480869        2.6742107345
 H          0.2672295172       -1.0951425487        1.7662518894
 C          0.7999624137       -1.5041765958        0.9149447728
 C          0.1096414247       -2.2950284533        0.0033450376
 C          0.8036147543       -2.8097996672       -1.0827513271
 C          2.1480414214       -2.5251723788       -1.2541996794
 C          2.8264146791       -1.7267294179       -0.3513977557
 C          2.1416613554       -1.2131424795        0.7423086079
 N          2.8292626009       -0.3729859153        1.6566081631
 S          2.9910992502        1.2115791096        1.0971426212
 O          3.3362181411        1.9977686880        2.2622155625
 O          1.8154104232        1.6365936265        0.3683258702
 C          4.3909971914        1.1124176452        0.0051846059
 C          4.1952327948        1.1604345805       -1.3609408619
 C          5.2955383141        1.0533408672       -2.1974142515
 C          6.5628192123        0.9003453706       -1.6554205643
 C          6.7418571922        0.8563972642       -0.2805584906
 C          5.6464870631        0.9623918879        0.5615835784
 H          5.7366598194        0.9388174420        1.6347977053
 H          7.7289451005        0.7384567694        0.1364407449
 H          7.4162384284        0.8154136906       -2.3094770104
 H          5.1579047995        1.0866069822       -3.2662025488
 H          3.1902078273        1.2743188494       -1.7354214725
 H          2.3713346339       -0.3348415771        2.5580559326
 H          3.8731213022       -1.5042742088       -0.4792465585
 H          2.6735111161       -2.9287702027       -2.1059319795
 H          0.2884946352       -3.4244830307       -1.8021653890
 C         -1.3631214955       -2.5157251048        0.2493640227
 H         -1.4728390905       -3.0080848337        1.2268315270
 C         -2.0451622411       -3.3609718841       -0.8042431556
 C         -1.9436289579       -4.8547466946       -0.7443022869
 C         -3.2394839874       -4.1777950797       -0.4160544594
 H         -4.0576051402       -4.2587396297       -1.1157852643
 H         -3.5525000373       -4.1402981321        0.6175308265
 H         -1.8748937594       -5.4048072452       -1.6703893482
 H         -1.3770913933       -5.2842490424        0.0680007288
 H         -2.0606664327       -2.8841843982       -1.7769792447
 O         -1.5238945982       -0.5077579151       -1.8119577290
