  62
        -98.93777444
 C         -2.5670337038       -0.0740809509       -0.1410347405
 C         -2.4175722725       -1.2071029877       -0.9757506740
 C         -1.8407368026       -2.4162795678       -0.3648928640
 C         -1.4850765865       -2.3813808043        0.9307937302
 C         -0.7934632864       -3.4558693742        1.7235051229
 C          0.7306131397       -3.2459819031        1.6813307834
 C          1.4394962340       -3.9322356484        0.5149616070
 H          2.4868200761       -3.6223102768        0.5453782743
 H          1.4084360740       -5.0149439722        0.6595865254
 C          0.8766016102       -3.6049638506       -0.8705243795
 H          1.6504465562       -3.8298577768       -1.6079141691
 H          0.6788150047       -2.5323532013       -0.9411737253
 C         -0.3854549081       -4.4103587229       -1.2153688491
 H         -0.2586796228       -4.8745289377       -2.1958017484
 H         -0.4939004957       -5.2243174827       -0.4983976262
 C         -1.6887698521       -3.6017413310       -1.2790462757
 H         -1.8088552561       -3.1889956719       -2.2858915797
 H         -2.5351775534       -4.2779704203       -1.1151026127
 H          1.1634591838       -3.6218724848        2.6110627374
 H          0.9208810142       -2.1698529759        1.6380314416
 H         -1.1326685944       -3.3483947090        2.7559197520
 H         -1.0680020550       -4.4432386428        1.3634699471
 O         -1.6696252889       -1.2813686051        1.7083512313
 C         -2.1525413385       -0.0922748482        1.1927499983
 O         -2.1823202027        0.8397031768        2.0185930469
 H         -0.4018345894        0.9450791590       -1.1529128320
 C         -0.6167195901        1.9064401676       -0.7077117135
 C         -1.9372628298        2.2666533870       -0.4680941836
 C         -2.1935842918        3.5115848161        0.0879494728
 C         -1.1446321001        4.3509224836        0.4260557225
 C          0.1690227386        3.9600410619        0.2453656551
 C          0.4340702607        2.7190433382       -0.3243953605
 N          1.7516514583        2.2659573534       -0.5257059970
 S          2.0202357391        0.6051160406       -0.3346157880
 O          1.7006202305       -0.0553825949       -1.5759849408
 O          1.3541132826        0.1146208186        0.8494040933
 C          3.7875641227        0.5926870535       -0.0988082203
 C          4.3042275502        0.4521660424        1.1748947881
 C          5.6796897285        0.4742966845        1.3467625873
 C          6.5096631629        0.6396731727        0.2482796279
 C          5.9761402139        0.7788319656       -1.0246699701
 C          4.6022305993        0.7553662851       -1.2035844676
 H          4.1409338148        0.8490110709       -2.1727807187
 H          6.6245804014        0.9043037648       -1.8766330320
 H          7.5793138993        0.6572289032        0.3849203901
 H          6.0963648621        0.3626741744        2.3347559064
 H          3.6187500216        0.3202126469        1.9970167566
 H          2.4322307893        2.8092973834       -0.0116011461
 H          0.9826949441        4.6016162560        0.5480502025
 H         -1.3548682758        5.3144020959        0.8654015983
 H         -3.2090489157        3.8126845499        0.2870603820
 C         -2.9878221706        1.2334991312       -0.7937655185
 H         -2.9305970566        1.0222851988       -1.8758103708
 C         -4.4128511253        1.6840027147       -0.5195888137
 C         -5.4681986155        0.6983130013       -0.1179058215
 C         -4.9973609572        1.7313030684        0.8591287607
 H         -5.6652724430        2.5452776663        1.1010631238
 H         -4.3678377599        1.4201607554        1.6771170664
 H         -6.4551420145        0.7991424322       -0.5439911042
 H         -5.1586129450       -0.3257375187        0.0350056417
 H         -4.7262602752        2.4657828976       -1.2051496307
 O         -2.7354821791       -1.2012136520       -2.1980301878
