  62
        -98.94039861
 C          2.0705504896        1.0252472807        0.5574107506
 C          2.7807588297        0.0433226708        1.2954479706
 C          4.1924717297       -0.1408100090        0.9464357207
 C          4.7439977397        0.6230818111       -0.0136947092
 C          6.1764248597        0.5752873414       -0.4715472791
 C          6.4601535900       -0.5112102486       -1.5177821892
 C          6.4634671501       -1.9439042886       -0.9830924892
 H          6.8871892103       -2.5768113885       -1.7654248892
 H          7.1263352001       -2.0069040285       -0.1194998392
 C          5.0758351602       -2.4843713188       -0.6098137193
 H          4.9558699804       -3.4917151088       -1.0150808193
 H          4.3048942801       -1.8620647589       -1.0704248293
 C          4.8102243901       -2.5672272989        0.8935149007
 H          3.7881833302       -2.9261750491        1.0407327506
 H          5.4901734402       -3.2923566488        1.3464125807
 C          4.9547817199       -1.2318675589        1.6352554207
 H          4.5355943098       -1.3492456290        2.6376284607
 H          6.0072459898       -0.9634041687        1.7252588508
 H          5.7244227400       -0.4241000287       -2.3206116892
 H          7.4440395599       -0.3035172584       -1.9447643391
 H          6.8318944697        0.4342676514        0.3883193909
 H          6.3927034496        1.5480415414       -0.9185044291
 O          4.0386995296        1.5688347210       -0.6846358892
 C          2.6831468095        1.7768532608       -0.4465281993
 O          2.1782447194        2.6441912008       -1.1811156293
 O          2.2543754097       -0.6418082993        2.2137460106
 C          0.6029233595        1.1951830404        0.9050186005
 C         -0.2505330103        0.2708422203        0.0750035005
 C         -0.1254106202        0.2253389504       -1.3098979695
 C         -0.9221158400       -0.6207999597       -2.0596466296
 C         -1.8628680899       -1.4304634799       -1.4471953897
 C         -2.0006745300       -1.3869961399       -0.0666342297
 C         -1.1954012902       -0.5409788398        0.6850669104
 H         -1.2948439902       -0.5251890599        1.7619718104
 N         -2.9870134899       -2.1818459201        0.5515190802
 S         -4.5615906099       -1.9000069703        0.0399020901
 O         -5.4064304799       -2.3780432805        1.1102219201
 O         -4.7593158597       -2.5100526003       -1.2497253099
 C         -4.6511286502       -0.1242006403       -0.0950481898
 C         -4.4756404602        0.4787758797       -1.3241005998
 C         -4.4387433804        1.8624773297       -1.3909867598
 C         -4.5759290406        2.6149258797       -0.2352693697
 C         -4.7621291106        1.9942524896        0.9905763902
 C         -4.7933109104        0.6113199496        1.0651176002
 H         -4.9375905504        0.0917643495        1.9990882102
 H         -4.8732975907        2.5834269896        1.8866642502
 H         -4.5350210908        3.6909713597       -0.2890092397
 H         -4.2955172004        2.3484241798       -2.3426335797
 H         -4.3757861701       -0.1404965502       -2.2000486898
 H         -2.9418061900       -2.1627365601        1.5605971102
 H         -2.4962577398       -2.0914829699       -2.0165126998
 H         -0.8106194199       -0.6495841797       -3.1330293496
 H          0.5988431698        0.8660092705       -1.7901110995
 H          0.5271737495        0.8598673004        1.9517448405
 C          0.1215012393        2.6388777404        0.8541276705
 C         -0.8803033907        3.1432085202       -0.1370249595
 C         -1.2721093108        2.9733349001        1.2978367205
 H         -1.4245135909        3.8526798401        1.9044861505
 H         -1.9270601706        2.1488811500        1.5374160904
 H         -0.7355494408        4.1394092303       -0.5251941195
 H         -1.2820399505        2.4492394402       -0.8583775295
 H          0.9032998492        3.3346925805        1.1396303506
