  62
        -98.94297931
 C         -0.7510556138       -1.7799666048        0.1378886261
 C          0.2228843160       -2.3872665906       -0.6852522122
 C          1.6192511198       -2.2894403033       -0.2281307196
 C          1.8960327555       -1.6201502156        0.9045253967
 C          3.2264099728       -1.4368063740        1.5921176898
 C          4.4520859126       -1.1486808860        0.7169145850
 C          4.1713068692       -0.2998592467       -0.5312842984
 H          3.1627564152        0.1152958560       -0.4861637614
 H          4.8704520850        0.5382259166       -0.5586210840
 C          4.3237690631       -1.0830363498       -1.8368351731
 H          4.4819992784       -0.3753151191       -2.6544114896
 H          5.2112584997       -1.7169129929       -1.7728534396
 C          3.1169186049       -1.9409294694       -2.2115752686
 H          2.2743633555       -1.2915295778       -2.4692090254
 H          3.3697102943       -2.5083892181       -3.1108746178
 C          2.6454026127       -2.9214294654       -1.1243647759
 H          2.1389725926       -3.7543628191       -1.6200971037
 H          3.4872006227       -3.3153336666       -0.5596255026
 H          5.1783425084       -0.6361712735        1.3498489268
 H          4.9120565810       -2.0872902297        0.4108930679
 H          3.0694810353       -0.6096915979        2.2880261273
 H          3.4201252235       -2.3315182101        2.1914646447
 O          0.9253561386       -1.0246217420        1.6542119019
 C         -0.4116658326       -1.0881979261        1.2993337093
 O         -1.1815846630       -0.5035399600        2.0832665962
 O         -0.0623344124       -3.0024855871       -1.7493242096
 C         -2.2095448369       -1.8271730377       -0.2739673051
 C         -2.7739417893       -0.4310800576       -0.3711113508
 C         -4.0766820935       -0.1133741838       -0.0062469307
 C         -4.5321531130        1.1902585144       -0.1013407991
 C         -3.7009377070        2.2029688298       -0.5435609376
 C         -2.3978408466        1.8927629490       -0.9199913578
 C         -1.9555588398        0.5820170671       -0.8528584231
 H         -0.9461504544        0.3531860805       -1.1608474157
 N         -1.5261160367        2.8959703546       -1.3685129943
 S          0.1268914361        2.8046938983       -1.2316849310
 O          0.5789435364        4.1310256425       -1.5997414633
 O          0.6467576258        1.7293394527       -2.0420534553
 C          0.5743219374        2.5210552880        0.4748241124
 C          1.9301877371        2.3813144128        0.7013082873
 C          2.3847302301        2.1827315378        1.9931945704
 C          1.4759066935        2.1307351874        3.0391009726
 C          0.1213218398        2.2850491639        2.7987720886
 C         -0.3396134543        2.4869005210        1.5062348913
 H         -1.3952316987        2.5859922696        1.3135925491
 H         -0.5883292103        2.2320725702        3.6081246024
 H          1.8247198425        1.9650986986        4.0464386429
 H          3.4412775652        2.0677225322        2.1768602636
 H          2.5987439051        2.4297903323       -0.1438012762
 H         -1.8603936926        3.8432448594       -1.2756320536
 H         -4.0497692403        3.2229272845       -0.5965436674
 H         -5.5454328193        1.4244324119        0.1873901322
 H         -4.7333408399       -0.8854390563        0.3598178036
 H         -2.2194877249       -2.2764034363       -1.2789538048
 C         -2.9933128864       -2.7206234255        0.6669136222
 C         -4.1489971637       -3.5315577636        0.1635476996
 C         -2.8617106700       -4.2066302651        0.5267573780
 H         -2.8261318879       -4.8090050879        1.4219902676
 H         -2.2308873952       -4.5723387930       -0.2704329172
 H         -5.0003280524       -3.6747547968        0.8119631329
 H         -4.3985933355       -3.4522207471       -0.8838585213
 H         -3.0479368291       -2.3152070048        1.6711249615
