  62
        -98.94462285
 C          1.5371500685        1.5350103385       -0.5286572381
 C          1.4094690315        0.1555624964       -0.8257274715
 C          2.6350731663       -0.6466520183       -0.6808703780
 C          3.7812789234       -0.0484317821       -0.3117460655
 C          5.0828619144       -0.7566298475       -0.0738772021
 C          5.2229019053       -1.1806548841        1.3949194909
 C          3.9972477126       -1.9090671422        1.9466145562
 H          3.1535333613       -1.2154546987        1.9764310415
 H          4.2218197804       -2.1852356575        2.9792318656
 C          3.5956729236       -3.1625471694        1.1568446782
 H          3.3793846443       -3.9660382293        1.8639849735
 H          4.4310216416       -3.4924808644        0.5381539940
 C          2.3522523813       -2.9912542540        0.2819915286
 H          1.5369537286       -2.5735069702        0.8778340152
 H          2.0391004235       -3.9818935815       -0.0562251864
 C          2.5278921188       -2.1182465521       -0.9662787254
 H          1.6307121251       -2.2365955261       -1.5805980463
 H          3.3904524386       -2.4626204733       -1.5401719411
 H          5.3903645135       -0.2859416499        1.9991892286
 H          6.1019062605       -1.8213478618        1.4869380016
 H          5.8968007134       -0.0744317564       -0.3250920835
 H          5.1399739974       -1.6289023042       -0.7220132224
 O          3.8719987693        1.2833001457       -0.0622661444
 C          2.7572565387        2.0986238187       -0.1450309913
 O          2.9785803775        3.2947595829        0.1341039847
 O          0.3429862056       -0.3962002802       -1.1994641262
 C          0.3519078765        2.4873715883       -0.5865114861
 C         -0.5423018651        2.2390062209        0.6047844996
 C         -0.3970361056        3.0173360158        1.7491931732
 C         -1.1851819839        2.7871019952        2.8616601805
 C         -2.1342008681        1.7806847397        2.8528091411
 C         -2.2778842277        0.9878581379        1.7188896462
 C         -1.4843230663        1.2203809028        0.6045265209
 H         -1.5928442134        0.5892598677       -0.2604795688
 N         -3.1961774044       -0.0661515842        1.7048302660
 S         -3.8850571718       -0.6472386051        0.2997638308
 O         -4.1761370052        0.4134604356       -0.6365426379
 O         -5.0323224596       -1.3993611583        0.7684344158
 C         -2.6993284303       -1.7887283583       -0.3726919970
 C         -2.1109952248       -2.7013754324        0.4790268215
 C         -1.2277398447       -3.6300983110       -0.0443342932
 C         -0.9531962883       -3.6330464890       -1.4030578518
 C         -1.5533162031       -2.7110361696       -2.2442358652
 C         -2.4366042064       -1.7786085693       -1.7262215565
 H         -2.9154856535       -1.0352680446       -2.3443181310
 H         -1.3296153357       -2.7069797904       -3.2992433387
 H         -0.2620110344       -4.3555797554       -1.8088132014
 H         -0.7523909155       -4.3455414497        0.6078017527
 H         -2.3473494666       -2.6682392422        1.5299528301
 H         -3.8166464349       -0.1236660801        2.4978425576
 H         -2.7545193893        1.6030383055        3.7181682483
 H         -1.0647478382        3.4005199027        3.7419540505
 H          0.3500303433        3.7986382537        1.7598037638
 H          0.7763542002        3.4951040412       -0.4820102966
 C         -0.3953456546        2.4175171850       -1.9024828419
 C         -1.3152011527        3.5402428617       -2.2725534682
 C         -0.0229758508        3.3554804744       -3.0091517434
 H         -0.0543343339        2.9922581063       -4.0254423990
 H          0.7752749514        4.0592916878       -2.8218130003
 H         -2.2397737719        3.3031554383       -2.7766107577
 H         -1.3923489978        4.3690784865       -1.5846440091
 H         -0.6886827992        1.4150328763       -2.1843866944
