  62
        -98.94482144
 C          1.9723472594        0.4618854046       -0.0596208024
 C          2.9976993604        0.6012272804        0.9143946061
 C          4.1404405171       -0.3090087821        0.7957308954
 C          4.1588685326       -1.2278860229       -0.1862749664
 C          5.2366084003       -2.2498503883       -0.4262360666
 C          6.4307852674       -1.7220144148       -1.2331574730
 C          7.3512687959       -0.7611811560       -0.4795251327
 H          7.6481145890       -1.2124440086        0.4677562826
 H          8.2544824368       -0.6448117478       -1.0818038963
 C          6.7459660765        0.6262719060       -0.2244844383
 H          5.8874682993        0.7754892095       -0.8833516664
 H          7.4796666622        1.3953723579       -0.4761199804
 C          6.3094092630        0.8720584329        1.2198221649
 H          7.1833847775        0.8558377683        1.8747162920
 H          5.8633705900        1.8680970297        1.2781161548
 C          5.2833075158       -0.1378549865        1.7502470605
 H          5.7640602530       -1.0968104916        1.9430211725
 H          4.8773972322        0.2456798592        2.6894748176
 H          7.0206479807       -2.5871775222       -1.5447255806
 H          6.0546321097       -1.2343242554       -2.1354785989
 H          4.7735816739       -3.0635961565       -0.9887439273
 H          5.5865287222       -2.6434349691        0.5286471359
 O          3.1516310906       -1.3450088362       -1.0887047759
 C          2.0471805989       -0.5044901177       -1.0625198185
 O          1.2323251057       -0.7397171638       -1.9788311410
 O          2.9575260520        1.4537281707        1.8404723514
 C          0.7968107311        1.4187000552        0.0541780744
 C         -0.3945211792        0.7539345557        0.7020958772
 C         -0.8741231105        1.1921322525        1.9308519402
 C         -1.9724917395        0.5866649634        2.5168738457
 C         -2.6147386543       -0.4654913895        1.8898322226
 C         -2.1415721709       -0.9106153934        0.6616312355
 C         -1.0461721107       -0.2968304443        0.0718397644
 H         -0.6780708795       -0.6546199876       -0.8780786336
 N         -2.7883943152       -1.9765462111        0.0128682013
 S         -4.4574548139       -1.9172826132       -0.0824228886
 O         -5.0289822490       -2.4133424872        1.1454642876
 O         -4.8027755926       -2.6537695455       -1.2781530222
 C         -4.8528984099       -0.1870587089       -0.2711057538
 C         -5.6583087073        0.4397062217        0.6575933340
 C         -5.9262153139        1.7912584574        0.5094549687
 C         -5.3818711700        2.4898680546       -0.5566073329
 C         -4.5765876774        1.8449446707       -1.4829439996
 C         -4.3077444999        0.4935561967       -1.3419201901
 H         -3.6865350720       -0.0349941704       -2.0474583229
 H         -4.1535280152        2.3894205346       -2.3117930021
 H         -5.5853261556        3.5431157162       -0.6682090759
 H         -6.5538869216        2.2945370483        1.2270214050
 H         -6.0555385239       -0.1411004847        1.4740446818
 H         -2.3740705280       -2.2192179799       -0.8751470060
 H         -3.4652932056       -0.9563812526        2.3346367850
 H         -2.3315257404        0.9358602358        3.4727673498
 H         -0.3697296717        2.0040073719        2.4338677606
 H          1.1423412610        2.2116985937        0.7306984359
 C          0.4072263943        2.0526073334       -1.2677332028
 C         -0.3867064082        3.3230457520       -1.2576881838
 C          1.0510442053        3.3407329531       -1.6804076496
 H          1.2835155152        3.4886331818       -2.7244428672
 H          1.7764018405        3.7749296750       -1.0077538172
 H         -1.1445385779        3.4613441619       -2.0129782732
 H         -0.6385222410        3.7473960393       -0.2978996644
 H          0.1975277845        1.3314833786       -2.0467106978
