  62
        -98.94028360
 C         -2.0025722442       -1.4219883451       -0.1657959516
 C         -1.7625585299       -0.0508886231       -0.4297434996
 C         -2.9606718138        0.7825533637       -0.6047395590
 C         -4.1845898235        0.2337736090       -0.5116310347
 C         -5.4947783318        0.9525742937       -0.6853765834
 C         -5.9875032301        1.6634973060        0.5826011129
 C         -5.2120653639        2.9248216597        0.9658691192
 H         -5.1566471676        3.5920456480        0.1051434913
 H         -5.7930329000        3.4357207953        1.7363404645
 C         -3.7998158285        2.6610043174        1.5073142128
 H         -3.6361253009        3.2597831217        2.4062233498
 H         -3.7129513779        1.6128310833        1.8032878689
 C         -2.6727921623        2.9945434077        0.5297638312
 H         -2.6639481189        4.0692328380        0.3343576926
 H         -1.7220259523        2.7303397704        1.0004784773
 C         -2.7618823161        2.2538448883       -0.8106976349
 H         -3.5676590585        2.6674561588       -1.4165870451
 H         -1.8168608297        2.3940342830       -1.3406379816
 H         -7.0308366724        1.9412122080        0.4158545080
 H         -5.9620968413        0.9539978009        1.4131363262
 H         -5.4137941018        1.6729273087       -1.4998525197
 H         -6.2311745606        0.1950795995       -0.9626190969
 O         -4.3736042232       -1.0876035078       -0.2518180524
 C         -3.2964503866       -1.9347109117       -0.0428082503
 O         -3.6157143946       -3.1060039024        0.2435464710
 O         -0.6201114830        0.4636545199       -0.5194421302
 C         -0.8625907236       -2.3974762819        0.0733241497
 C          0.1668590802       -1.7699816726        0.9823863735
 C         -0.2561270800       -1.2431518672        2.2006837555
 C          0.6356965501       -0.6306254515        3.0587806011
 C          1.9783818642       -0.5455272185        2.7321505237
 C          2.4136399671       -1.0791906246        1.5281305819
 C          1.5129938845       -1.6901390046        0.6626512032
 H          1.8706741433       -2.0792855319       -0.2778959223
 N          3.7854240268       -1.0089541191        1.2040443990
 S          4.4698920598        0.4911888966        0.9106639205
 O          5.8945551291        0.2605144264        0.8232298938
 O          4.0325431661        1.4129148896        1.9269917320
 C          3.8588860509        0.9835990527       -0.6926490205
 C          2.5146465853        1.2596717379       -0.8410455372
 C          2.0365803124        1.5891222757       -2.0992467585
 C          2.9025548519        1.6436541518       -3.1798398528
 C          4.2516979903        1.3682063093       -3.0126257452
 C          4.7354574715        1.0283242190       -1.7598270844
 H          5.7742728067        0.7995664226       -1.5841800879
 H          4.9244982769        1.4119867720       -3.8540956955
 H          2.5229812795        1.8998542851       -4.1566785363
 H          0.9818851605        1.7804823109       -2.2147514551
 H          1.8448357665        1.2033847098        0.0015570541
 H          4.0542644045       -1.6403430040        0.4619026784
 H          2.6857448998       -0.0567769516        3.3815648386
 H          0.2856180119       -0.2169708513        3.9929158124
 H         -1.3052086971       -1.3066990472        2.4589710117
 H         -1.3201481182       -3.2397845702        0.6185298314
 C         -0.2670163246       -2.9780101323       -1.2018463811
 C         -1.0459298553       -3.0066718546       -2.4821551699
 C          0.1452286569       -2.1082599961       -2.3508729968
 H          1.0418924751       -2.3655009832       -2.8961920875
 H         -0.0167254508       -1.0471151169       -2.2506889050
 H         -0.9664399576       -3.8832953073       -3.1076120817
 H         -2.0297540672       -2.5602677922       -2.4823825700
 H          0.3499041749       -3.8489447224       -1.0015574780
