  62
        -98.94468193
 C         -2.5249795055       -0.8532955336        0.3115264732
 C         -2.5056938236        0.0330246521       -0.7928664281
 C         -2.7962262693        1.4429398306       -0.4939308276
 C         -3.0761968533        1.8136364799        0.7674901524
 C         -3.3346907399        3.2216174843        1.2167021577
 C         -2.0425610811        3.9074160453        1.6807497542
 C         -0.8779776845        3.7814160547        0.6974909305
 H         -0.0431733375        4.3538414042        1.1088571259
 H         -0.5477786106        2.7407305193        0.6439479739
 C         -1.1830139848        4.2805671472       -0.7214532411
 H         -0.3323333568        4.8684760140       -1.0728492441
 H         -2.0529446421        4.9391826579       -0.7078986028
 C         -1.4008792899        3.1657216520       -1.7464495088
 H         -1.3520785590        3.6064542834       -2.7464764164
 H         -0.5831734335        2.4427770845       -1.6673693234
 C         -2.7348720023        2.4144759313       -1.6383815268
 H         -3.5573302975        3.1309589403       -1.5843244432
 H         -2.8571743666        1.8186545732       -2.5477354907
 H         -1.7358407953        3.4626025514        2.6300971161
 H         -2.2585308144        4.9636396932        1.8533513550
 H         -3.7817276432        3.7820458667        0.3980368114
 H         -4.0373014442        3.1910453004        2.0514338952
 O         -3.1209786376        0.9324189823        1.7981240528
 C         -2.8181583461       -0.4023711952        1.6031519563
 O         -2.8575350152       -1.0899530059        2.6432728622
 H         -0.3957238343       -1.3535579142       -1.5880776477
 C          0.1076362157       -1.8279811542       -0.7587845375
 C         -0.6403538608       -2.4216535225        0.2479452832
 C          0.0329535936       -3.0079523001        1.3132818361
 C          1.4159896718       -2.9849837937        1.3736142313
 C          2.1541748117       -2.3496018772        0.3896621738
 C          1.4873572590       -1.7631695397       -0.6764166680
 N          2.2249287518       -1.0091527030       -1.6306754375
 S          2.4420068572        0.5728038085       -1.0702714442
 O          1.3082050749        1.0210663520       -0.2929199404
 O          2.7787308448        1.3651945362       -2.2330705959
 C          3.8699810037        0.4053183744       -0.0229441509
 C          3.7184760992        0.4424872723        1.3488279082
 C          4.8365397168        0.2710439628        2.1503629005
 C          6.0780562419        0.0650390257        1.5681996789
 C          6.2134014258        0.0321829057        0.1880205237
 C          5.0996839941        0.2024150150       -0.6185630680
 H          5.1562752313        0.1891361458       -1.6942295970
 H          7.1807915138       -0.1272336284       -0.2602426593
 H          6.9453718388       -0.0702611607        2.1949268731
 H          4.7324418128        0.2960063265        3.2232354630
 H          2.7322801846        0.6008952230        1.7561168982
 H          1.7422127320       -0.9528891284       -2.5188019006
 H          3.2296324783       -2.2982008682        0.4431165834
 H          1.9232387305       -3.4460946844        2.2071229916
 H         -0.5387610931       -3.4583093198        2.1117576905
 C         -2.1469233939       -2.3270209769        0.2191961616
 H         -2.5336579093       -2.7942213624        1.1346277293
 C         -2.7409379789       -3.0454043544       -0.9746970037
 C         -2.8480468547       -4.5394076028       -0.9381653399
 C         -4.0833835368       -3.6964120859       -0.8425852301
 H         -4.7556201928       -3.6631671641       -1.6866699786
 H         -4.5806181984       -3.6253701598        0.1139614092
 H         -2.6704147409       -5.0898948075       -1.8491431779
 H         -2.5093988997       -5.0431896368       -0.0455518754
 H         -2.5086773300       -2.5781913562       -1.9221999652
 O         -2.2628170651       -0.3081917169       -1.9835805363
