  62
        -98.93366519
 C          2.1014613709        0.6444518662        0.7797581273
 C          2.8858021348       -0.5194212600        0.9684282591
 C          4.3077554866       -0.4550715603        0.5803659606
 C          4.7854217537        0.6984897737        0.0780570790
 C          6.1750648222        0.9990876274       -0.4177100225
 C          6.4569041892        0.3883148167       -1.7996781867
 C          5.9832276937       -1.0521732567       -1.9737907614
 H          4.9086795561       -1.1017111802       -1.7880298680
 H          6.1445605930       -1.3307778111       -3.0185400947
 C          6.6970958193       -2.0816464194       -1.1009555261
 H          7.7683790275       -2.0496286577       -1.3118923730
 H          6.3299543199       -3.0677270550       -1.3970203250
 C          6.4940194368       -1.9352619395        0.4087612263
 H          7.1111587660       -1.1375257816        0.8133763238
 H          6.8408702421       -2.8621337371        0.8750257213
 C          5.0429270469       -1.7476839284        0.8405261897
 H          4.4295717089       -2.5397291619        0.3955995898
 H          4.9768922120       -1.9097907795        1.9234027437
 H          5.9470538664        0.9986898492       -2.5489400663
 H          7.5298789913        0.4469354231       -1.9900925083
 H          6.2506297137        2.0858843094       -0.4962213418
 H          6.9106430500        0.6680141410        0.3093335984
 O          3.9956363248        1.7957910078       -0.0865631618
 C          2.6498377617        1.8103534973        0.2442217811
 O          2.0898723514        2.8971081478        0.0137937479
 O          2.4159656311       -1.5864020021        1.4513431812
 C          0.6458590390        0.5615800214        1.1979410219
 C         -0.2447398695        0.1456697542        0.0541718874
 C         -0.1159281817        0.7106582812       -1.2112690681
 C         -0.9498447450        0.3208489705       -2.2432406907
 C         -1.9440117008       -0.6181925343       -2.0282810388
 C         -2.0866060081       -1.1818487790       -0.7668390289
 C         -1.2299524209       -0.8092661832        0.2602799855
 H         -1.3472010567       -1.2707605094        1.2287925602
 N         -3.1033546946       -2.1219425812       -0.4971513000
 S         -4.2942828679       -1.6466381679        0.5825292569
 O         -3.6934996939       -1.3172711360        1.8479368250
 O         -5.2659608293       -2.7159276012        0.5801769990
 C         -4.9978186788       -0.1879248190       -0.1670561991
 C         -6.1128638720       -0.3184481659       -0.9719077086
 C         -6.6133662115        0.8045516079       -1.6108857495
 C         -5.9864089045        2.0303246196       -1.4442018827
 C         -4.8655774981        2.1440459883       -0.6359322819
 C         -4.3631761899        1.0254110431        0.0099143974
 H         -3.4977828541        1.0797762161        0.6495568738
 H         -4.3766301936        3.0961951931       -0.5050659045
 H         -6.3735716735        2.9034317640       -1.9453059121
 H         -7.4866492511        0.7204936490       -2.2375186295
 H         -6.5702003478       -1.2898753433       -1.0694234730
 H         -3.5393556985       -2.4957217797       -1.3291566092
 H         -2.6014395729       -0.9154234067       -2.8314883070
 H         -0.8331186208        0.7627474193       -3.2210203124
 H          0.6389100670        1.4651148384       -1.3730479439
 H          0.6137327573       -0.2492361918        1.9435627066
 C          0.1456873912        1.8283146054        1.8817713380
 C         -0.9072239446        2.7134223377        1.2918268114
 C         -1.2298780439        1.8600466887        2.4799710423
 H         -1.3628294486        2.3380723878        3.4389744529
 H         -1.8578353161        0.9913046191        2.3386470490
 H         -0.7996894161        3.7780443247        1.4315829740
 H         -1.3190577009        2.4414539027        0.3323834750
 H          0.9310492643        2.3233806589        2.4432790769
