  62
        -98.94419108
 C          1.6895656675        1.2973915572        0.2608514517
 C          1.2968262600        0.2276769870       -0.5733749792
 C          1.8556716424       -1.0957969140       -0.2546042346
 C          2.6831259382       -1.2171952122        0.7974960019
 C          3.3886516802       -2.4571918608        1.2736563694
 C          4.7833922223       -2.5775100636        0.6354243677
 C          4.8171636721       -3.2998502629       -0.7107532897
 H          5.8327897801       -3.2083511406       -1.1024328001
 H          4.6209318742       -4.3621850621       -0.5518063444
 C          3.8358099220       -2.7715898137       -1.7596744519
 H          4.1927403608       -3.0877014968       -2.7416309531
 H          3.8397507590       -1.6802760707       -1.7479784614
 C          2.4028656525       -3.2881912722       -1.5607952013
 H          2.4115700269       -4.1015514121       -0.8357192722
 H          2.0370096913       -3.7128235513       -2.4979402645
 C          1.3843012664       -2.2239225300       -1.1310454094
 H          0.9770407255       -1.7328250218       -2.0207843529
 H          0.5391539545       -2.7088525756       -0.6281971809
 H          5.1876115724       -1.5682013545        0.5230678527
 H          5.4369621686       -3.1160342694        1.3246953978
 H          3.5064068022       -2.3482600929        2.3540874877
 H          2.7854839982       -3.3392983266        1.0796007843
 O          3.0438284041       -0.1568600847        1.5737590195
 C          2.5433085718        1.1110745507        1.3450673584
 O          2.9276161085        1.9763714892        2.1601049489
 O          0.5087480876        0.3717125307       -1.5464101256
 C          1.1065369841        2.6797529597        0.0321105748
 C         -0.4010323175        2.5969269496       -0.0002239599
 C         -1.1861633017        3.3246037065       -0.8861255832
 C         -2.5634417390        3.1845356988       -0.8825252439
 C         -3.1838171486        2.3029052812       -0.0163039599
 C         -2.4075343559        1.5798319440        0.8816362615
 C         -1.0341703473        1.7548889785        0.9052392542
 H         -0.4477547022        1.1862357979        1.6127151763
 N         -2.9828505312        0.6508105353        1.7748399640
 S         -2.5540482485       -0.9589096914        1.5785109503
 O         -3.3274268103       -1.6737304601        2.5723312516
 O         -1.1237803257       -1.1061562999        1.6572942889
 C         -3.1583314689       -1.3801883161       -0.0468334411
 C         -4.3822066005       -2.0147928653       -0.1477891541
 C         -4.8972597336       -2.2865042988       -1.4044800751
 C         -4.1869971634       -1.9109943831       -2.5351112712
 C         -2.9631286946       -1.2715904813       -2.4155558647
 C         -2.4382537910       -0.9986489312       -1.1609594339
 H         -1.4849195679       -0.5049715251       -1.0498041509
 H         -2.4045416623       -0.9758159737       -3.2890686565
 H         -4.5881008182       -2.1181019508       -3.5147417148
 H         -5.8482505849       -2.7857116729       -1.4980892054
 H         -4.8953847043       -2.2897807704        0.7596664766
 H         -3.9907429240        0.7137716239        1.8301826563
 H         -4.2553252984        2.1715676279       -0.0327186885
 H         -3.1596885889        3.7551182044       -1.5780040689
 H         -0.7177003674        3.9970950684       -1.5861047331
 H          1.4034278764        3.2852330703        0.9015452159
 C          1.6979788249        3.2977300146       -1.2191108496
 C          1.8954637099        4.7801876487       -1.3141700013
 C          3.0787922231        3.8752922241       -1.1529582861
 H          3.7399042493        3.7311776298       -1.9943144091
 H          3.5790895347        3.8472808094       -0.1955096503
 H          1.7482358688        5.2603629701       -2.2698457780
 H          1.6002727511        5.3801070101       -0.4665825958
 H          1.4242625114        2.7562948806       -2.1174807686
