  62
        -98.94210228
 C         -0.8466754207       -1.2108413422        0.7116201935
 C         -1.4342272351       -1.0172149463       -0.5595160973
 C         -2.2639708186        0.1909439242       -0.7215002566
 C         -2.4070680121        1.0405489476        0.3122196090
 C         -3.1419927846        2.3613740903        0.4232249685
 C         -4.1725616629        2.7731529724       -0.6248692695
 C         -5.4327327095        1.9098055764       -0.6594832163
 H         -6.0505995097        2.2441451038       -1.4957484230
 H         -5.9969835780        2.0801954626        0.2607529661
 C         -5.1979690955        0.4066897439       -0.7859737859
 H         -6.1751458145       -0.0829246858       -0.8136676206
 H         -4.6788933789        0.0394601784        0.1015596331
 C         -4.4240387407       -0.0314499969       -2.0282509328
 H         -4.9038432730        0.3708330716       -2.9225982631
 H         -4.4779745174       -1.1220401034       -2.0818290128
 C         -2.9344565750        0.3563442505       -2.0537635904
 H         -2.7889768436        1.3662763580       -2.4316668918
 H         -2.4166051359       -0.3197491347       -2.7408183343
 H         -3.7126384602        2.8147025516       -1.6081545421
 H         -4.4782051630        3.7931823833       -0.3757120657
 H         -3.6189613556        2.3534102691        1.4085288534
 H         -2.3657252179        3.1345471097        0.4601188533
 O         -1.7987212673        0.8209809519        1.5155838739
 C         -1.0033553776       -0.2883688067        1.7425798821
 O         -0.5011717067       -0.3371300702        2.8833872521
 H          1.4810621618       -0.2758529474        0.3190865938
 C          1.8486989189       -1.1514982995       -0.1959939446
 C          1.2226675141       -2.3734585003        0.0142870684
 C          1.7170253007       -3.4929900553       -0.6420828671
 C          2.7928080385       -3.3773499009       -1.5058036034
 C          3.3867054406       -2.1511142919       -1.7418465425
 C          2.9059517992       -1.0264291594       -1.0808364053
 N          3.4854658429        0.2375237456       -1.2725405316
 S          2.4997875366        1.5895847834       -1.3283204621
 O          1.2224886572        1.3055821391       -1.9391830855
 O          3.3101343954        2.5902320319       -1.9930494348
 C          2.2831085152        2.0679786837        0.3713009718
 C          1.0191172620        2.4049182174        0.8115191443
 C          0.8462902501        2.7939105572        2.1296415843
 C          1.9402696078        2.8427380642        2.9792527862
 C          3.2056531270        2.5096312432        2.5200175812
 C          3.3840810144        2.1193358068        1.2025324937
 H          4.3504934737        1.8495699770        0.8106093483
 H          4.0517808453        2.5485009160        3.1870809023
 H          1.8009010564        3.1374914761        4.0072681286
 H         -0.1407685745        3.0362972650        2.4900507787
 H          0.1952459531        2.3323068095        0.1172896370
 H          4.2113028033        0.2732473937       -1.9737790440
 H          4.2111472089       -2.0601629361       -2.4325940105
 H          3.1650080760       -4.2536264969       -2.0146563825
 H          1.2549737996       -4.4539759514       -0.4858430124
 C          0.0484274536       -2.4102799371        0.9629800540
 H          0.4345535170       -2.2907393040        1.9863970613
 C         -0.7492440193       -3.6955463349        0.8888534560
 C         -0.3506827116       -4.8824308140        1.7122933579
 C         -1.5771344028       -4.0998014765        2.0704056011
 H         -2.5453400965       -4.5438775434        1.8943079272
 H         -1.5420491348       -3.4602759538        2.9405954696
 H          0.5157978710       -4.7820562070        2.3481928376
 H         -0.4794797985       -5.8684867840        1.2919360077
 H         -1.1651061032       -3.8693297397       -0.0969521949
 O         -1.2776909950       -1.8154465915       -1.5204762811
