  62
        -98.94163823
 C         -1.9170547698       -1.0830057608       -0.1846612568
 C         -2.1172586396        0.3164105790       -0.2813196111
 C         -3.3519219896        0.8322161410        0.3341949472
 C         -4.1756430797       -0.0091883369        0.9828936598
 C         -5.4786845697        0.3797455953        1.6173841585
 C         -6.6458419997        0.2249194424        0.6323598988
 C         -6.3938146595        0.8698715882       -0.7305284431
 H         -5.5848992695        0.3350440166       -1.2334992014
 H         -7.2954233494        0.7259433565       -1.3298105927
 C         -6.0523407092        2.3653432684       -0.6720458377
 H         -6.6238526991        2.8852467861       -1.4438717393
 H         -6.3585600393        2.7779169813        0.2899736211
 C         -4.5773262492        2.6895518674       -0.9157756085
 H         -4.4879017090        3.7682986569       -1.0694793518
 H         -4.2417547692        2.1997036845       -1.8332906370
 C         -3.6139337893        2.3076692707        0.2150593627
 H         -3.9782747693        2.7124863636        1.1615489214
 H         -2.6458797392        2.7675591999       -0.0047830686
 H         -7.5385493196        0.6612815440        1.0841591174
 H         -6.8294542998       -0.8409323280        0.4782588721
 H         -5.6503112999       -0.2719080821        2.4758543104
 H         -5.4157663796        1.4097223163        1.9634132853
 O         -3.9286388199       -1.3388760766        1.0963347038
 C         -2.8128537600       -1.9058274785        0.5058436457
 O         -2.7268189702       -3.1404987181        0.6603586394
 O         -1.3196827094        1.1144470471       -0.8387512935
 C         -0.7301446399       -1.8026713429       -0.8069754945
 C          0.4819132601       -1.7545012403        0.0866835954
 C          1.1941621099       -2.9092534695        0.3876758090
 C          2.3194550198       -2.8544889272        1.1924167390
 C          2.7579013600       -1.6493141457        1.7111402453
 C          2.0522170002       -0.4897801265        1.4161828717
 C          0.9250473002       -0.5471413688        0.6095043418
 H          0.3853255404        0.3591881206        0.3780910990
 N          2.4899768903        0.7477305950        1.9324043079
 S          4.0400415004        1.2308465835        1.5165742866
 O          4.9921302602        0.3902751155        2.1976105292
 O          4.1001052806        2.6420751644        1.8203964523
 C          4.1403766405        0.9676977581       -0.2436143126
 C          4.5981961904       -0.2424335134       -0.7255316789
 C          4.5989871604       -0.4589987976       -2.0942421982
 C          4.1461967307        0.5315777798       -2.9517983913
 C          3.6936427508        1.7430749314       -2.4519193350
 C          3.6829270607        1.9630623856       -1.0841661257
 H          3.3392001308        2.8909457570       -0.6554626886
 H          3.3415384010        2.5122958494       -3.1202080574
 H          4.1435473307        0.3579872366       -4.0160037207
 H          4.9483506203       -1.4002764689       -2.4864187053
 H          4.9486398702       -0.9840822713       -0.0269815766
 H          1.8414693804        1.4991255645        1.7422179656
 H          3.6350114999       -1.5864082839        2.3348770452
 H          2.8598398697       -3.7604190666        1.4210864018
 H          0.8526473398       -3.8565301607       -0.0033153481
 H         -1.0437344600       -2.8558588230       -0.8787557313
 C         -0.4328675497       -1.3270157273       -2.2242129359
 C          0.7482320905       -0.4864494786       -2.5932137484
 C          0.7053449203       -1.9277392698       -2.9955638640
 H          0.5515708603       -2.1749889129       -4.0347623633
 H          1.3542274301       -2.6099863483       -2.4676261619
 H          0.6033254706        0.2721371292       -3.3467251107
 H          1.4347759905       -0.1947130563       -1.8145702193
 H         -1.3472631396       -1.1361294788       -2.7776683766
