  62
        -98.94016438
 C          2.4861523800        1.2654565999       -0.0978474996
 C          2.3152086099        0.0336913100       -0.7744058297
 C          3.5397025698       -0.7510028502       -0.9924990797
 C          4.7199211098       -0.2663703304       -0.5650819297
 C          6.0302821797       -0.9915718306       -0.6613778697
 C          6.2923544496       -1.8300432907        0.5978577902
 C          5.1128445695       -2.7100255606        1.0121750901
 H          5.4230867694       -3.2753971807        1.8935374801
 H          4.2795593796       -2.0722828505        1.3165080702
 C          4.6325721793       -3.6816945504       -0.0748105099
 H          5.4059826293       -3.7998818505       -0.8345045499
 H          4.4695339792       -4.6618710204        0.3780589400
 C          3.3193404694       -3.2803652702       -0.7493938199
 H          2.5619874694       -3.0713342501        0.0110536901
 H          2.9636114093       -4.1308074201       -1.3374515900
 C          3.3962426996       -2.0730230801       -1.6923998098
 H          4.2032464196       -2.2187318402       -2.4134379398
 H          2.4501461796       -2.0201733499       -2.2397523198
 H          7.1692023795       -2.4550273008        0.4198170002
 H          6.5193246397       -1.1519807508        1.4236554403
 H          6.0214702196       -1.6310035905       -1.5417552898
 H          6.8259096698       -0.2523829007       -0.7669650896
 O          4.8459972000        0.9318937795        0.0603581704
 C          3.7366190101        1.7185565797        0.3227505605
 O          3.9894269602        2.7797087896        0.9280172006
 H         -1.3812965099        1.4780397104       -0.2381035296
 C         -0.9963546000        1.1093072003        0.6968793704
 C          0.3149650800        1.3569366501        1.0687270804
 C          0.7722403699        0.8574046899        2.2864393804
 C         -0.0580131802        0.1144258000        3.1016562003
 C         -1.3595017602       -0.1535449898        2.7142124103
 C         -1.8291946401        0.3471011503        1.5064114203
 N         -3.1648462901        0.1207110806        1.1182759703
 S         -3.4985368702       -0.3679717993       -0.4659067298
 O         -2.8249917204       -1.6137007393       -0.7593917399
 O         -3.2582512600        0.7307702308       -1.3646938097
 C         -5.2549672202       -0.6490022590       -0.3239343498
 C         -5.7328920204       -1.9391191090       -0.1956160099
 C         -7.0980890504       -2.1389958888       -0.0619625600
 C         -7.9572552403       -1.0507180087       -0.0562141799
 C         -7.4628577201        0.2387211313       -0.1868698398
 C         -6.0992859401        0.4449788011       -0.3219113497
 H         -5.6704358499        1.4268304710       -0.4352242996
 H         -8.1344042100        1.0820700613       -0.1847262497
 H         -9.0191454703       -1.2085853586        0.0475171501
 H         -7.4851583506       -3.1404614088        0.0361391100
 H         -5.0278108005       -2.7547167991       -0.2142983500
 H         -3.6326798702       -0.5117447594        1.7558963702
 H         -2.0065745203       -0.7454632498        3.3443053602
 H          0.3115075898       -0.2684082702        4.0412822503
 H          1.7949507600        1.0571972898        2.5785109504
 C          1.2806050901        2.1371433200        0.2098322105
 H          1.6605340303        2.9818356299        0.8030126506
 C          0.6708463202        2.6758631102       -1.0661383395
 C         -0.1140866696        3.9516146803       -1.0384688694
 C          1.2417546904        3.9192920702       -1.6759278394
 H          1.3098147204        3.9808908703       -2.7517103794
 H          2.0635421705        4.3922784700       -1.1578080093
 H         -0.2147131395        4.4540917203       -0.0882780893
 H         -0.9819293996        4.0330222405       -1.6754174794
 H          0.3458248601        1.8923551303       -1.7418594895
 O          1.2002635198       -0.3940726099       -1.1753486197
