  62
        -98.93935381
 C         -1.1971896962       -1.6217064125       -0.4052757833
 C         -2.4116755112       -1.5728098109        0.3251257555
 C         -3.3166740885       -0.4615493550        0.0078326429
 C         -2.9671551855        0.4274130105       -0.9390243215
 C         -3.7909365952        1.5912178365       -1.4235270667
 C         -4.0490153398        2.7133344152       -0.3987760267
 C         -5.3737367956        2.5801770127        0.3626352502
 H         -5.8188540428        3.5714918574        0.4698283906
 H         -6.0675226975        1.9896815020       -0.2370191451
 C         -5.2766628215        1.9813664836        1.7692672311
 H         -4.9065256589        2.7450072757        2.4573132853
 H         -6.2863783368        1.7148020677        2.0890903246
 C         -4.3722538181        0.7570977090        1.9154703687
 H         -4.5509777877        0.3178395962        2.8989647726
 H         -3.3251201261        1.0689115856        1.9040813985
 C         -4.5642814431       -0.3203536244        0.8302976116
 H         -5.4177562115       -0.0817581537        0.1974488569
 H         -4.7430654159       -1.2909124838        1.2973221036
 H         -4.0707812451        3.6527415750       -0.9536717640
 H         -3.2161661271        2.7679964408        0.3015732833
 H         -3.2461283656        2.0000378685       -2.2767395373
 H         -4.7470233162        1.2131950415       -1.7924055252
 O         -1.7956078949        0.3409697815       -1.6224497765
 C         -0.8731038090       -0.6601323318       -1.3633842936
 O          0.1596006671       -0.5803660179       -2.0552958020
 O         -2.7281438539       -2.4252368741        1.1970070902
 C         -0.2166987012       -2.7334839202       -0.0652925534
 C          0.9255784692       -2.1081319669        0.6947975785
 C          0.8476039643       -1.9806298065        2.0784275712
 C          1.8372857823       -1.3219103112        2.7852641541
 C          2.9156956474       -0.7579889201        2.1252217879
 C          2.9925515867       -0.8681606510        0.7434736950
 C          2.0175678574       -1.5592023842        0.0389596155
 H          2.0862432028       -1.6250204523       -1.0350889817
 N          4.0592054696       -0.2481536721        0.0537298825
 S          4.1011539003        1.4241614705        0.1549343471
 O          5.0365653880        1.8501605399       -0.8611941117
 O          4.4241866457        1.7960429302        1.5097775024
 C          2.4567999552        1.9847468503       -0.2497122310
 C          2.1677175988        2.3047375781       -1.5603938947
 C          0.8873769185        2.7214739792       -1.8828506174
 C         -0.0814271871        2.7988554657       -0.8955336218
 C          0.2204630222        2.4578200839        0.4131785895
 C          1.5014945450        2.0483406635        0.7444841584
 H          1.7730964418        1.7858619053        1.7540867217
 H         -0.5383209184        2.5055283083        1.1790981821
 H         -1.0791035837        3.1201825642       -1.1492763125
 H          0.6450437580        2.9740971816       -2.9025031667
 H          2.9498428670        2.2333247817       -2.2993298914
 H          4.0884791211       -0.5103413993       -0.9224208609
 H          3.6814663347       -0.2134892318        2.6536145699
 H          1.7658254959       -1.2383274463        3.8592369686
 H         -0.0098060940       -2.3908691173        2.5930633534
 H         -0.7590677148       -3.4002358193        0.6177659084
 C          0.2187969517       -3.5294650268       -1.2770970432
 C          0.9126840868       -4.8421230641       -1.0729745334
 C         -0.4878862571       -4.8092334675       -1.6045902538
 H         -0.6522301058       -5.0551541115       -2.6430208191
 H         -1.2899365384       -5.1197981599       -0.9511717494
 H          1.7125133786       -5.1138676887       -1.7447109006
 H          1.0615263915       -5.1730884787       -0.0562072706
 H          0.5332976750       -2.9153006796       -2.1112761237
