  62
        -98.93326334
 C         -2.0587795018       -0.3263538514       -0.9712282477
 C         -2.8984156246        0.7800892275       -0.7034184424
 C         -4.3117101774        0.4814956364       -0.3795883999
 C         -4.7184756179       -0.7999856751       -0.3427322427
 C         -6.0804403333       -1.3412469847        0.0028864466
 C         -6.3680396325       -1.3041255210        1.5122497352
 C         -5.9748431650       -0.0041225310        2.2086368159
 H         -6.1334718584       -0.1417691810        3.2814996154
 H         -4.9082551591        0.1729527008        2.0594195157
 C         -6.7616451057        1.2301448551        1.7742003670
 H         -7.8254929382        1.0577308888        1.9518175807
 H         -6.4478736772        2.0567632739        2.4167211640
 C         -6.5749670096        1.6647118566        0.3187692765
 H         -6.9792638352        2.6771416917        0.2277052380
 H         -7.1546366869        1.0405418580       -0.3560026860
 C         -5.1229721071        1.7331917841       -0.1432347801
 H         -5.0838971748        2.2898582419       -1.0873472190
 H         -4.5487728802        2.3366467764        0.5687111840
 H         -7.4316017378       -1.4953813177        1.6650875572
 H         -5.8080691415       -2.1163490278        1.9823961098
 H         -6.8470657430       -0.8071955339       -0.5505799075
 H         -6.0958283524       -2.3820829554       -0.3282414144
 O         -3.8683058826       -1.8375236120       -0.5951944765
 C         -2.5423241539       -1.6354487573       -0.9137183522
 O         -1.8996219771       -2.6836779252       -1.1304909693
 H          1.6307208556       -1.6520260623       -0.8178975586
 C          1.3895976110       -0.9706101501       -0.0161567940
 C          0.2783947775       -0.1456712809       -0.1095434164
 C         -0.0062967275        0.7165327440        0.9459131241
 C          0.7989073242        0.7408280360        2.0692544227
 C          1.9146011860       -0.0747033416        2.1531142520
 C          2.2127581519       -0.9319709764        1.1017751652
 N          3.3519677110       -1.7626269680        1.1415301716
 S          4.5326961703       -1.4926441465       -0.0160380742
 O          3.9821478797       -1.7022239161       -1.3292976424
 O          5.6428545005       -2.3350078216        0.3662198569
 C          4.9701511477        0.2232504759        0.2042964026
 C          6.0391139795        0.5453881577        1.0175879046
 C          6.3300848124        1.8811043962        1.2439983702
 C          5.5438881398        2.8665454454        0.6659289917
 C          4.4720362688        2.5268461170       -0.1453448744
 C          4.1797444097        1.1927067785       -0.3801021760
 H          3.3582197058        0.8928845294       -1.0092841972
 H          3.8592740210        3.2909945640       -0.5962988684
 H          5.7678101764        3.9060463892        0.8463496156
 H          7.1651124985        2.1489651655        1.8711466157
 H          6.6251063847       -0.2533491211        1.4429552166
 H          3.7848532374       -1.8109357684        2.0537373404
 H          2.5475034559       -0.0514357138        3.0275518741
 H          0.5628380449        1.4094873024        2.8829399073
 H         -0.8599987583        1.3719064953        0.8681334369
 C         -0.5913830386       -0.1900558048       -1.3404932349
 H         -0.3451381528       -1.1190144598       -1.8793984790
 C         -0.3205542620        0.9725961274       -2.2890540860
 C          0.5775217701        2.1187875611       -1.9419822506
 C          1.0270248055        1.0939153888       -2.9371653651
 H          1.0765127826        1.3686327524       -3.9801403180
 H          1.7854426961        0.3830010791       -2.6395595390
 H          0.2964777010        3.0974369025       -2.2996504252
 H          1.0388978453        2.1273237346       -0.9668276079
 H         -1.1793884229        1.2039637035       -2.9092896547
 O         -2.5127768123        1.9772201762       -0.7206404612
