  62
        -98.94995232
 C          2.0484613976        0.7649939355       -0.2213464405
 C          2.6848490326       -0.2205297257        0.5692420620
 C          2.6778957693       -1.5851332991        0.0265282177
 C          2.0855787613       -1.8197180026       -1.1582525202
 C          1.9993971376       -3.1604080346       -1.8274328708
 C          0.7032912159       -3.8966434303       -1.4653594251
 C          0.4163093786       -3.9502371261        0.0353811022
 H          0.1795735639       -2.9473431766        0.3988156886
 H         -0.4866019001       -4.5508221855        0.1716078242
 C          1.5518937031       -4.5426708923        0.8817183189
 H          1.1163968683       -5.2239738349        1.6158748967
 H          2.2212878285       -5.1294041025        0.2507166975
 C          2.3641329965       -3.5094534867        1.6655226856
 H          2.9506222196       -4.0389572148        2.4216825074
 H          1.6792807241       -2.8378077548        2.1909025229
 C          3.3401577032       -2.6589000655        0.8419002118
 H          3.9503855595       -3.3070532459        0.2089107651
 H          4.0021550187       -2.1393205585        1.5411815676
 H          0.7651281757       -4.9126472788       -1.8609638019
 H         -0.1335477935       -3.3910159527       -1.9529005982
 H          2.0258597461       -3.0037333184       -2.9074852603
 H          2.8611035062       -3.7582183130       -1.5364015783
 O          1.4746810092       -0.8502140299       -1.8846713510
 C          1.4178628321        0.4576565160       -1.4253827342
 O          0.7921916548        1.2348974074       -2.1721518703
 O          3.2413415312        0.0333231698        1.6727338274
 C          1.9735481559        2.1932175441        0.2895872363
 C          0.5266223665        2.5701571487        0.4956707578
 C         -0.0413736117        3.7507361767        0.0352802435
 C         -1.3875584532        4.0040954105        0.2375435014
 C         -2.1941305938        3.0863322642        0.8851614859
 C         -1.6317686596        1.9077139242        1.3627544060
 C         -0.2787992315        1.6716074909        1.1847254254
 H          0.1484431289        0.7541465725        1.5622643007
 N         -2.4111474441        0.9445180082        2.0341741442
 S         -2.4435401616       -0.6215466750        1.4433962092
 O         -3.3969049229       -1.3131364031        2.2834231352
 O         -1.1114403055       -1.1643247561        1.4037346331
 C         -3.1099275221       -0.4643715205       -0.2024605585
 C         -4.4560063797       -0.6995107465       -0.4074647703
 C         -4.9840857848       -0.5134397461       -1.6746352866
 C         -4.1637483639       -0.0868500139       -2.7087948107
 C         -2.8160712682        0.1492927185       -2.4855783579
 C         -2.2811822929       -0.0405994632       -1.2211430377
 H         -1.2356542853        0.1376134561       -1.0255388313
 H         -2.1652920114        0.4851085201       -3.2774657550
 H         -4.5748453335        0.0628261108       -3.6946817252
 H         -6.0314591059       -0.6980185797       -1.8515709257
 H         -5.0538208143       -1.0322550976        0.4257239842
 H         -3.3552253335        1.2476913223        2.2301701209
 H         -3.2474842673        3.2773509438        1.0242843975
 H         -1.8175978492        4.9236151379       -0.1290399674
 H          0.5671660847        4.4693784008       -0.4884665322
 H          2.4681885814        2.1786863589        1.2724363284
 C          2.7270082546        3.1356553254       -0.6243937054
 C          3.3391664133        4.3888488323       -0.0756862848
 C          4.2148284069        3.2436447413       -0.4839329248
 H          4.8114420841        3.3405927562       -1.3784836507
 H          4.6832593679        2.6532893248        0.2902204912
 H          3.3390843188        5.2758351940       -0.6909690697
 H          3.2197259428        4.5826472593        0.9795725584
 H          2.3169172053        3.1596006252       -1.6275885428
