  62
        -98.94388700
 C         -1.8808186281       -0.5579199999        0.8482527572
 C         -2.2129012309        0.4851095840       -0.0492348599
 C         -3.6473666492        0.7838395496       -0.1776595654
 C         -4.5355179554        0.0880966907        0.5557472438
 C         -6.0253631297        0.2546590324        0.4844811532
 C         -6.6417711919       -0.6963617156       -0.5509038581
 C         -5.9407139676       -0.6683535269       -1.9090199798
 H         -4.9274427538       -1.0604895711       -1.7957805950
 H         -6.4789444562       -1.3536454940       -2.5673643774
 C         -5.8748403667        0.7200837259       -2.5604502387
 H         -6.6080249617        1.3819456086       -2.0981467940
 H         -6.1428776654        0.6256670547       -3.6148773057
 C         -4.4953388293        1.3797840573       -2.5096797875
 H         -3.7414210881        0.6843767419       -2.8875605980
 H         -4.5061634018        2.2439720895       -3.1794660044
 C         -4.0427813860        1.8764428306       -1.1306383759
 H         -3.1451741837        2.4855858554       -1.2747812651
 H         -4.8194657730        2.5079375684       -0.6941459289
 H         -7.6937375019       -0.4341782108       -0.6770797522
 H         -6.5893987086       -1.7149313815       -0.1596980356
 H         -6.4438786502        0.0286718390        1.4666520171
 H         -6.2582841092        1.2866959512        0.2297517283
 O         -4.1748605312       -0.8911088399        1.4239766336
 C         -2.8451407337       -1.2441487620        1.5861424055
 O         -2.6521110141       -2.1621572306        2.4086215237
 H          2.0160405007       -0.1063700350        0.0806487141
 C          1.6273710365        0.5168959429        0.8682173691
 C          0.4000508293        0.2314651456        1.4465274326
 C         -0.0671252708        1.0597276538        2.4640375382
 C          0.6609223734        2.1611306074        2.8682529869
 C          1.8727731856        2.4583179393        2.2700727778
 C          2.3577858186        1.6291578244        1.2660099245
 N          3.6080436703        1.8799170727        0.6888500911
 S          3.9986706422        1.4193882271       -0.8668166940
 O          5.1985006622        2.1753183808       -1.1622157990
 O          2.9040527573        1.5912331748       -1.7917670737
 C          4.4306117100       -0.3029052420       -0.7289569370
 C          5.1107914811       -0.7414514696        0.3898857217
 C          5.4821158724       -2.0742650103        0.4671566938
 C          5.1786846481       -2.9400245708       -0.5724600341
 C          4.5008616032       -2.4829861763       -1.6919992522
 C          4.1213564128       -1.1519888673       -1.7728548597
 H          3.5807337312       -0.7571151402       -2.6187754903
 H          4.2659152308       -3.1567123455       -2.5009637292
 H          5.4698031990       -3.9766494644       -0.5105623502
 H          6.0079009907       -2.4337435442        1.3369695408
 H          5.3318558683       -0.0427014801        1.1790721704
 H          4.0424078492        2.7516550509        0.9518314628
 H          2.4383430076        3.3247251872        2.5773591570
 H          0.2800870029        2.7992227664        3.6516450548
 H         -1.0184296450        0.8323046288        2.9262490316
 C         -0.4297424597       -0.9609245019        1.0381126531
 H         -0.4234314643       -1.6811569618        1.8698270044
 C          0.0845805162       -1.6549777286       -0.2063070455
 C          1.1246641583       -2.7277707057       -0.0937061958
 C         -0.2886421738       -3.0873457866       -0.4382423852
 H         -0.5114458127       -3.4055584525       -1.4456490435
 H         -0.8962257315       -3.5666847278        0.3157670994
 H          1.8765903939       -2.8003520966       -0.8647248536
 H          1.4825727143       -2.9730980316        0.8945995467
 H          0.1141652219       -0.9973929032       -1.0687006612
 O         -1.3590549951        1.1362080854       -0.7067876955
