  62
        -98.94403792
 C         -1.8331663837       -1.1290461638        0.2411571165
 C         -2.1778768945       -0.1244385046       -0.6948042709
 C         -3.6094910623       -0.0096863052       -1.0031380946
 C         -4.4884460749       -0.8537236611       -0.4327619637
 C         -5.9750880661       -0.8748017650       -0.6646391040
 C         -6.7548387498        0.1266559013        0.1984553885
 C         -6.5964275929        1.5936727469       -0.2032601322
 H         -6.8062556897        1.7027124072       -1.2677203983
 H         -7.3580520274        2.1581542742        0.3383417466
 C         -5.2193302403        2.1928477077        0.1153486290
 H         -4.7028718664        1.5570474230        0.8381278113
 H         -5.3468149238        3.1711258852        0.5843024081
 C         -4.3156568954        2.3893575996       -1.1021291502
 H         -3.3539793419        2.7788178206       -0.7572142847
 H         -4.7581718307        3.1303418554       -1.7717741196
 C         -4.0458319695        1.1077800528       -1.9015052766
 H         -4.9331247895        0.8216296842       -2.4660054319
 H         -3.2319339198        1.3069019363       -2.6032571120
 H         -7.8128748932       -0.1352530406        0.1256824381
 H         -6.4519104777       -0.0002435548        1.2403232202
 H         -6.1845594769       -0.6896658788       -1.7184540002
 H         -6.3142418208       -1.8821449233       -0.4138134550
 O         -4.1101343029       -1.8281654432        0.4368972491
 C         -2.7842986640       -1.9736990771        0.8130225190
 O         -2.5830609246       -2.8764656567        1.6505041314
 O         -1.3395467425        0.6377553391       -1.2432098604
 C         -0.3842049364       -1.3155376841        0.6523446710
 C          0.1923223665       -0.0128629837        1.1502148440
 C         -0.5409287424        0.7452523087        2.0597309441
 C         -0.0507997308        1.9444279498        2.5373980605
 C          1.1845526679        2.4110489832        2.1239004904
 C          1.9342609526        1.6539194170        1.2320638091
 C          1.4410063736        0.4449751574        0.7587774975
 H          2.0326812463       -0.1199364922        0.0583553728
 N          3.2117763016        2.0781073950        0.8476945698
 S          3.8894505320        1.6853504480       -0.6261577639
 O          5.0027760389        2.6034332458       -0.7526680519
 O          2.9303319752        1.7074430502       -1.7045494760
 C          4.5329176141        0.0397856827       -0.4023128744
 C          5.0813478138       -0.3130823532        0.8148411648
 C          5.6215990526       -1.5805708393        0.9626783824
 C          5.6145264827       -2.4660981628       -0.1041730389
 C          5.0657734662       -2.0946329115       -1.3217966809
 C          4.5184226373       -0.8300412453       -1.4745025184
 H          4.0690526755       -0.5042436079       -2.3995157664
 H          5.0611275929       -2.7837146966       -2.1516441728
 H          6.0365585851       -3.4516639636        0.0129370493
 H          6.0472951984       -1.8738148076        1.9087383293
 H          5.0712114718        0.3990334132        1.6227617906
 H          3.4737809503        3.0027502860        1.1548497039
 H          1.5652028951        3.3530552619        2.4881496141
 H         -0.6369312152        2.5260189427        3.2332156138
 H         -1.5099390849        0.3843316316        2.3779117290
 H         -0.3967965705       -2.0269953998        1.4915525601
 C          0.4060532204       -1.9264486435       -0.4865739364
 C          1.5677831426       -2.8277758783       -0.1972072566
 C          0.2910667889       -3.3995295022       -0.7342476328
 H          0.2693259683       -3.7502518814       -1.7550942110
 H         -0.3425398208       -3.9635019285       -0.0650833925
 H          2.4272960253       -2.7868042263       -0.8489462115
 H          1.8092260649       -3.0128688788        0.8384447009
 H          0.4631043431       -1.2740019059       -1.3514688306
