  62
        -98.93573463
 C         -2.2973643467       -0.7495389481        0.8740479402
 C         -3.4853972702       -0.9871775184        0.1384755855
 C         -4.5376271081        0.0342663871        0.2743783580
 C         -4.3320007413        1.1018449646        1.0650269973
 C         -5.2911545203        2.2433429976        1.2366679672
 C         -5.0107138060        3.3609067286        0.2222112014
 C         -4.8713897189        2.8675852533       -1.2181027108
 H         -3.9762866465        2.2457897824       -1.2960466758
 H         -4.7074029711        3.7451806442       -1.8472801614
 C         -6.0826097223        2.0822454578       -1.7404298988
 H         -6.3199167693        2.4342577304       -2.7465277211
 H         -6.9520911658        2.2828861864       -1.1135153398
 C         -5.8650302340        0.5711568508       -1.8370857801
 H         -4.9414542142        0.3688892081       -2.3851025081
 H         -6.6891765565        0.1453657256       -2.4154278772
 C         -5.8068697996       -0.1813186109       -0.5017390547
 H         -5.8442566340       -1.2520262289       -0.7223739119
 H         -6.6773552775        0.0761056925        0.1046808573
 H         -4.0798517533        3.8584666441        0.5046748794
 H         -5.8189135090        4.0921133496        0.2822869200
 H         -6.3089276229        1.8769729472        1.1176136165
 H         -5.1730228636        2.6422241358        2.2455678398
 O         -3.1868295683        1.2864707894        1.7724872823
 C         -2.1479785678        0.3760318880        1.6889738926
 O         -1.1575136477        0.6683972099        2.3912358004
 H          1.5330033157       -1.0656146976        0.9052513068
 C          1.1379726604       -1.0526760135       -0.0996254836
 C         -0.2004783442       -1.3408412037       -0.3221720774
 C         -0.6906134391       -1.2931584995       -1.6244995162
 C          0.1459590254       -0.9629852993       -2.6742058758
 C          1.4787378666       -0.6672678617       -2.4473607635
 C          1.9789462268       -0.7137464835       -1.1513530442
 N          3.3389892734       -0.4562521833       -0.9036775900
 S          3.7652668443        0.3846426886        0.4988332305
 O          3.7248522395       -0.5266702421        1.6144770176
 O          2.9769752947        1.5910354900        0.6140003249
 C          5.4610099946        0.7847786696        0.1185285378
 C          6.4128855444       -0.2119563030        0.2250782881
 C          7.7292874713        0.0827540491       -0.0915629281
 C          8.0706178569        1.3617007568       -0.5064530772
 C          7.1050268790        2.3519068513       -0.6061914112
 C          5.7858236804        2.0633406436       -0.2927543024
 H          5.0022024145        2.8020166978       -0.3478181112
 H          7.3735965754        3.3460868116       -0.9252579296
 H          9.0962777875        1.5890308343       -0.7505272298
 H          8.4832789061       -0.6836316617       -0.0123747552
 H          6.1022684951       -1.1873473255        0.5611540192
 H          3.8084038429       -0.0653408738       -1.7101582006
 H          2.1284606490       -0.4037020686       -3.2681708542
 H         -0.2450709995       -0.9289931028       -3.6800363332
 H         -1.7310536377       -1.5201258345       -1.8001828662
 C         -1.0994938264       -1.6852719605        0.8379014739
 H         -0.5384650595       -1.4671681246        1.7612622577
 C         -1.4880246704       -3.1579657021        0.8827847387
 C         -1.2202395803       -4.1245079991       -0.2279587248
 C         -0.4167248322       -4.1978306763        1.0329811848
 H         -0.5831600511       -5.0199230438        1.7125289203
 H          0.6075806608       -3.8560456664        0.9955893777
 H         -0.7350458508       -3.7601564438       -1.1192684029
 H         -1.9639951376       -4.8836878139       -0.4155550244
 H         -2.4008579047       -3.3180442967        1.4470731790
 O         -3.6780311908       -1.9877013430       -0.5977212190
