  62
        -98.94582051
 C         -2.1373530022       -0.4438514908        0.0791606542
 C         -2.3995851052        0.6349393851        0.9625907927
 C         -2.1807779883        1.9828944212        0.4259300952
 C         -1.7705236200        2.1356167333       -0.8455307891
 C         -1.5091449365        3.4413189358       -1.5451012889
 C         -0.1100740006        4.0159108101       -1.2831612225
 C          0.0996058676        4.6022802872        0.1133421416
 H          1.0330970379        5.1678225579        0.0868179256
 H         -0.7022816832        5.3066734618        0.3378429985
 C          0.1942016567        3.5571769408        1.2336751484
 H          0.4153655876        2.5739818869        0.8108343631
 H          1.0316662218        3.7989409571        1.8928562580
 C         -1.0504892202        3.4477018089        2.1152496595
 H         -1.1847804949        4.3750388837        2.6774908239
 H         -0.8805902298        2.6402368091        2.8329874542
 C         -2.3486785255        3.1467945662        1.3544158248
 H         -3.1186467616        2.8836512399        2.0842926928
 H         -2.6745991873        4.0297611557        0.8044383997
 H          0.6326739156        3.2342173825       -1.4597966557
 H          0.0583371877        4.8094049344       -2.0146946916
 H         -1.6079430115        3.2473182123       -2.6152034161
 H         -2.2642610183        4.1716909355       -1.2535040090
 O         -1.5515253154        1.0793129310       -1.6696803503
 C         -1.6716399703       -0.2330957874       -1.2196146299
 O         -1.3416513708       -1.0801408159       -2.0682510713
 H          0.1180944405       -1.1435503481        1.6105787431
 C          0.2101968863       -2.0204111604        0.9850652226
 C         -0.9269571260       -2.5628898724        0.3968984348
 C         -0.7932938545       -3.6974003091       -0.3912464857
 C          0.4546935835       -4.2613024331       -0.5924977134
 C          1.5864029089       -3.7042980838       -0.0263696751
 C          1.4637335256       -2.5696470423        0.7693997007
 N          2.5950628949       -1.9982100119        1.3786353557
 S          2.8613981528       -0.3493017645        1.3810566206
 O          4.1868903733       -0.2033176597        1.9413316914
 O          1.7958156699        0.3268893188        2.0736306392
 C          2.8896307099        0.1259113848       -0.3355580317
 C          4.0999494647        0.2006301961       -0.9971496540
 C          4.1074124901        0.5209893955       -2.3450538716
 C          2.9104566106        0.7458656274       -3.0089878900
 C          1.7033948871        0.6630472518       -2.3321214088
 C          1.6924532919        0.3537370710       -0.9817029702
 H          0.7700588397        0.2823572255       -0.4261691694
 H          0.7648340070        0.8203490349       -2.8406908484
 H          2.9142877053        0.9877870638       -4.0600674071
 H          5.0436841460        0.5898082009       -2.8751741174
 H          5.0053254856        0.0202281023       -0.4405412313
 H          3.4576401486       -2.4872460570        1.1866616514
 H          2.5589757153       -4.1413872752       -0.1947511164
 H          0.5488276193       -5.1408941489       -1.2109649672
 H         -1.6615388883       -4.1252497266       -0.8644304848
 C         -2.2354712079       -1.8524877237        0.6398093961
 H         -2.3351559441       -1.6995600906        1.7281487506
 C         -3.4583913919       -2.6447841728        0.2077145733
 C         -4.7416457804       -1.9471390725       -0.1296657742
 C         -3.9731832430       -2.6605162265       -1.1992105735
 H         -4.3755141011       -3.5875377101       -1.5813982461
 H         -3.4450477697       -2.0768741106       -1.9353995586
 H         -5.6691354428       -2.3775052708        0.2172112012
 H         -4.7343904923       -0.8664694212       -0.1297064731
 H         -3.5499762410       -3.5717621102        0.7663540635
 O         -2.7941748596        0.4767205211        2.1491539561
