  62
        -98.93907527
 C         -1.2736923104       -1.0055346305        0.4447175091
 C         -2.2617872306       -0.9481380698       -0.5654807906
 C         -3.1819408506        0.2096227702       -0.5339369596
 C         -3.0135450304        1.1536021096        0.4091271311
 C         -3.8343661904        2.3931946094        0.6449644921
 C         -5.1761663202        2.0909171989        1.3331706423
 C         -5.9142833503        0.8669509293        0.7967022016
 H         -6.7774224801        0.6896662288        1.4439493117
 H         -5.2654720903       -0.0072014108        0.8777449608
 C         -6.4239197207        0.9907760703       -0.6371678882
 H         -7.1178430707        1.8322725803       -0.6985154274
 H         -6.9862754207        0.0806780904       -0.8615307087
 C         -5.3525573909        1.1664594810       -1.7148583483
 H         -4.9681607510        2.1826501110       -1.7208976177
 H         -5.8385870712        1.0130785617       -2.6829091083
 C         -4.2043435609        0.1643591210       -1.6440969593
 H         -3.6305450812        0.2260360216       -2.5765508094
 H         -4.6180716909       -0.8503570190       -1.6283954499
 H         -5.8153579802        2.9711771489        1.2469832930
 H         -4.9793105799        1.9198578781        2.3944078221
 H         -3.9881100506        2.9218894400       -0.2910299275
 H         -3.2482833002        3.0402508889        1.3014765024
 O         -2.0327410102        1.0672830989        1.3536660408
 C         -1.1627758401       -0.0014831411        1.4091790398
 O         -0.3427737699        0.0542718982        2.3492237096
 O         -2.4044667109       -1.8164117091       -1.4656339512
 C         -0.2527068603       -2.1291887905        0.5434104481
 C          0.8514536194       -1.8976405198       -0.4608884120
 C          0.6734306391       -2.1345535189       -1.8201450122
 C          1.7002527988       -1.8859070582       -2.7120830823
 C          2.9140190989       -1.3862859385       -2.2734981322
 C          3.1007286993       -1.1417141495       -0.9182696621
 C          2.0738727395       -1.4072671901       -0.0227467920
 H          2.2348263298       -1.2205386008        1.0283902381
 N          4.3248479094       -0.6426149598       -0.4431543120
 S          4.3429628897        0.5695967594        0.7103517988
 O          5.6816163096        1.1134384895        0.6295194588
 O          3.9524731500        0.0412204085        1.9913506885
 C          3.1694552595        1.7740316698        0.1175153799
 C          3.5755186092        2.6097530005       -0.9059276896
 C          2.6725810891        3.5183358809       -1.4313152387
 C          1.3789457792        3.5708251505       -0.9331835184
 C          0.9889326695        2.7275242198        0.0945508612
 C          1.8894206396        1.8185129894        0.6292002403
 H          1.6005598998        1.1573447189        1.4314391299
 H         -0.0146750804        2.7606860695        0.4899647514
 H          0.6714572991        4.2740034608       -1.3436141277
 H          2.9758934989        4.1800285414       -2.2265500383
 H          4.5929835892        2.5453182808       -1.2563597399
 H          5.0063841892       -0.4594358493       -1.1656225521
 H          3.7128700088       -1.1895334680       -2.9721373223
 H          1.5512502286       -2.0757343675       -3.7641956123
 H         -0.2815398310       -2.4909867186       -2.1718241722
 H          0.1893238399       -2.0388989912        1.5453195680
 C         -0.8641617904       -3.5099232004        0.4167411873
 C         -0.0862862402       -4.6899867008        0.9127457462
 C         -1.3043994001       -4.2291250113        1.6544369869
 H         -2.1973733701       -4.8344080313        1.6090196067
 H         -1.1655369698       -3.7277960620        2.6018009572
 H         -0.1409122704       -5.6141246004        0.3582853656
 H          0.8795144299       -4.4998888211        1.3573110561
 H         -1.4681083206       -3.6391870798       -0.4709857427
