  62
        -98.94342836
 C         -1.9663960314       -0.8537787841        0.0148512705
 C         -2.2477206617        0.0980492600        1.0217990455
 C         -2.4376929482        1.4777005105        0.5643225731
 C         -2.2953482068        1.7724333429       -0.7408189628
 C         -2.4131819813        3.1406794388       -1.3562250135
 C         -3.8543273658        3.5661932240       -1.6693712152
 C         -4.7076086150        3.9198262284       -0.4506722450
 H         -4.1765160439        4.6478257425        0.1632217291
 H         -5.6124888538        4.4040851122       -0.8228869776
 C         -5.1112521672        2.7148316780        0.4103138339
 H         -6.1741591729        2.7797639982        0.6530004792
 H         -4.9675767949        1.7946631713       -0.1605988444
 C         -4.3518457863        2.5976728127        1.7318866696
 H         -4.5881878888        3.4528360009        2.3688757550
 H         -4.6897076783        1.6926402142        2.2430866230
 C         -2.8274912135        2.5111794350        1.5777659873
 H         -2.4186889921        3.4841741383        1.3046916238
 H         -2.3986634459        2.2109477822        2.5374726180
 H         -4.3382565121        2.7660916746       -2.2339852444
 H         -3.8002847747        4.4449037077       -2.3160477284
 H         -1.9464899953        3.8756676704       -0.6994970962
 H         -1.8496679204        3.1067763715       -2.2911629772
 O         -2.0017749059        0.8320862013       -1.6774106143
 C         -1.8299512311       -0.4981925862       -1.3270302804
 O         -1.5690977715       -1.2515446003       -2.2851110916
 H          0.4825221202       -0.7752188081        0.3878137703
 C          0.7017006728       -1.7878923127        0.0816311446
 C         -0.3230620713       -2.7236907965        0.0257396872
 C         -0.0113013016       -4.0238936233       -0.3516421527
 C          1.2911827749       -4.3653537606       -0.6740420643
 C          2.3033749828       -3.4251086087       -0.6359848535
 C          2.0003351818       -2.1182425691       -0.2653550679
 N          2.9957645664       -1.1281052483       -0.2786277653
 S          2.7510778988        0.3755758587        0.4269825304
 O          2.4671422187        0.2388739491        1.8400560877
 O          1.7894717078        1.1131990782       -0.3542997208
 C          4.3751745019        1.0757605530        0.2016128874
 C          5.2768968906        1.0609942096        1.2487775744
 C          6.5446664756        1.5851098057        1.0497866794
 C          6.8882030734        2.1100867722       -0.1868133310
 C          5.9720161568        2.1194604325       -1.2283070204
 C          4.7027584693        1.5978382034       -1.0354869187
 H          3.9536655751        1.5912427326       -1.8103655310
 H          6.2409439196        2.5310424219       -2.1877297771
 H          7.8750233115        2.5174692003       -0.3396296653
 H          7.2574207029        1.5825073349        1.8585264837
 H          4.9610092915        0.6514531860        2.1947039700
 H          3.9318212539       -1.4808919709       -0.1413847903
 H          3.3152189095       -3.6905915945       -0.8998761248
 H          1.5201456563       -5.3798327713       -0.9631650420
 H         -0.7889711703       -4.7689677464       -0.3948206767
 C         -1.7190393269       -2.2955599101        0.4120475747
 H         -1.7864473929       -2.3110869472        1.5115272947
 C         -2.7965227042       -3.1982916188       -0.1550265512
 C         -3.2715554458       -4.3952363439        0.6118502305
 C         -4.1521211391       -3.1899950230        0.4838834592
 H         -5.0229168044       -3.2474782306       -0.1516575336
 H         -4.2843379234       -2.5571740789        1.3496609580
 H         -3.5418804697       -5.2844931715        0.0626163090
 H         -2.8172416795       -4.5872884830        1.5722447390
 H         -2.7523688192       -3.2633030091       -1.2364328917
 O         -2.3313396493       -0.1927328356        2.2477701667
