  62
        -98.94258171
 C         -0.7530548411       -1.3917558430        0.6599804099
 C         -1.2375428307       -1.0548747339       -0.6248456073
 C         -2.1191073084        0.1268152019       -0.7094520454
 C         -2.4459119794        0.7747373174        0.4241367873
 C         -3.3711988416        1.9524023537        0.5784719049
 C         -4.8544970332        1.5595684723        0.4586913363
 C         -5.1734144892        0.5517161152       -0.6431176924
 H         -4.5633197715       -0.3421551557       -0.5003430607
 H         -6.2186321849        0.2528886815       -0.5279701068
 C         -4.9910524275        1.0647331593       -2.0695189381
 H         -5.2900095997        0.2608151789       -2.7469406317
 H         -5.6655608764        1.9079190458       -2.2359759724
 C         -3.5744756987        1.5026293435       -2.4452403244
 H         -3.3351038755        2.4656937383       -2.0015170490
 H         -3.5528831591        1.6501369509       -3.5293404648
 C         -2.4800749435        0.4870107121       -2.1287040105
 H         -2.7136878954       -0.4601511126       -2.6282801182
 H         -1.5398764740        0.8320924876       -2.5808203539
 H         -5.4408820790        2.4668432869        0.3053169961
 H         -5.1605602468        1.1155102649        1.4087646940
 H         -3.1112370605        2.7235089948       -0.1417455758
 H         -3.2028687221        2.3604038037        1.5774447571
 O         -1.9870599473        0.3860607542        1.6489634746
 C         -1.1023941192       -0.6651460606        1.7953248385
 O         -0.7088249555       -0.8539157169        2.9644601546
 O         -0.9549434017       -1.7134024462       -1.6602418576
 C          0.2310142735       -2.5352594551        0.8188416673
 C          1.4325078871       -2.3024716628       -0.0661703406
 C          2.0815468325       -3.3212609569       -0.7522016130
 C          3.1682393631       -3.0377687939       -1.5613210100
 C          3.6186423217       -1.7396885125       -1.7168058406
 C          2.9832834796       -0.7146682827       -1.0253170224
 C          1.9199151257       -1.0076540968       -0.1884703502
 H          1.4343050829       -0.2068414458        0.3503933150
 N          3.4116625202        0.6170817587       -1.1397612244
 S          2.2770143063        1.8477249477       -1.1720550213
 O          1.0592842476        1.4529458633       -1.8391836426
 O          2.9861114656        2.9649092524       -1.7628885439
 C          1.9629104603        2.2150598728        0.5401175404
 C          0.6594928813        2.3763845923        0.9645933286
 C          0.4187803005        2.6817539871        2.2943376584
 C          1.4829614079        2.8239998808        3.1708964588
 C          2.7874149212        2.6664215232        2.7272553659
 C          3.0343665083        2.3606129262        1.3986432882
 H          4.0330798464        2.2281487474        1.0173549661
 H          3.6108064626        2.7773120748        3.4143233244
 H          1.2906557954        3.0551199530        4.2066629191
 H         -0.5963271514        2.7909680771        2.6412460435
 H         -0.1398671969        2.2383982186        0.2517722517
 H          4.1493949267        0.7712742621       -1.8119179361
 H          4.4493051373       -1.5171505916       -2.3692239448
 H          3.6610032114       -3.8376471141       -2.0930430499
 H          1.7298557356       -4.3360620194       -0.6623334188
 H          0.5638508892       -2.5084098037        1.8673208232
 C         -0.4540721991       -3.8616845837        0.5582396590
 C         -0.0215388991       -5.0976546048        1.2870246625
 C         -1.3263970960       -4.4449454006        1.6277253555
 H         -2.2431054813       -4.9349427787        1.3356675047
 H         -1.4004097805       -3.8980194558        2.5565550915
 H         -0.0451161607       -6.0407451053        0.7619006165
 H          0.7886672991       -5.0044556136        1.9942331498
 H         -0.7868535210       -3.9593483232       -0.4689452322
