  62
        -98.94147211
 C          2.5250991699        1.1534002996        0.0642911576
 C          2.4124098098       -0.2322260205       -0.2047035017
 C          3.4915824599       -1.0734295603        0.3292624685
 C          4.4894092001       -0.5167159400        1.0390828179
 C          5.6550839502       -1.2442265697        1.6522083580
 C          6.8091206900       -1.5079072002        0.6748236878
 C          6.5440605596       -2.5912164908       -0.3716410315
 H          7.5026325495       -2.8263835911       -0.8383333117
 H          6.1929748097       -3.4965281305        0.1245391891
 C          5.5496148993       -2.1844864213       -1.4680279115
 H          5.4393042994       -1.0976951213       -1.4751768420
 H          5.9455981291       -2.4728281219       -2.4443621114
 C          4.1655134894       -2.8199898812       -1.3356487008
 H          4.2435849393       -3.9019475213       -1.4637894402
 H          3.5304614992       -2.4315386016       -2.1359413808
 C          3.4675329997       -2.5357608605        0.0005926293
 H          2.4208660097       -2.8396104805       -0.0855856703
 H          3.9330077699       -3.1132750501        0.7990953295
 H          7.6744437701       -1.8114299800        1.2684411278
 H          7.0623093499       -0.5712063505        0.1730390673
 H          5.3148721603       -2.1878557094        2.0797316786
 H          6.0265394005       -0.6102563693        2.4601415676
 O          4.5435166902        0.8159920002        1.3025618572
 C          3.5737489701        1.6792969000        0.8212866270
 O          3.7515427003        2.8743178701        1.1314211763
 O          1.4692281096       -0.7488893408       -0.8601697711
 C          1.4742563798        2.1297964594       -0.4394592827
 C          0.1598412600        1.7852137998        0.2169024679
 C         -0.0098554297        2.0784441005        1.5677345278
 C         -1.1696029195        1.7177267509        2.2248959383
 C         -2.1835731197        1.0541613806        1.5539680389
 C         -2.0201461001        0.7457941699        0.2112993890
 C         -0.8583698502        1.1279632895       -0.4515665615
 H         -0.7415629705        0.8757158489       -1.4934820114
 N         -3.0349548203        0.0860900695       -0.5035742904
 S         -3.8178173402       -1.2892322301        0.0648073706
 O         -3.4344300498       -1.5764495694        1.4249114706
 O         -3.6099436505       -2.3410847207       -0.9070565289
 C         -5.5298894902       -0.7877659201        0.0104945808
 C         -6.4017932205       -1.4404123605       -0.8383910586
 C         -7.7275037104       -1.0374114505       -0.8822111785
 C         -8.1576114202        0.0089461900       -0.0814340589
 C         -7.2700636699        0.6572672804        0.7643783405
 C         -5.9443807599        0.2576717103        0.8121923603
 H         -5.2290818597        0.7420933007        1.4559174399
 H         -7.6053757397        1.4728983307        1.3846924801
 H         -9.1889990402        0.3224372600       -0.1168937588
 H         -8.4177867406       -1.5399532108       -1.5405346380
 H         -6.0237579906       -2.2479963609       -1.4439272283
 H         -2.7890848506       -0.0610848910       -1.4722190303
 H         -3.0705902296        0.7395435909        2.0775100693
 H         -1.2881284892        1.9508646415        3.2724923182
 H          0.7896928705        2.5802506808        2.0961073273
 H          1.7857980099        3.1208695396       -0.0830764233
 C          1.4281090794        2.1473592586       -1.9527476427
 C          0.7709256792        3.2936223182       -2.6593560531
 C          2.2616857192        3.1455016181       -2.6960716434
 H          2.7280977590        2.8392591276       -3.6205427534
 H          2.8604220194        3.8286306784       -2.1113676140
 H          0.2131284290        3.0937113678       -3.5615481129
 H          0.3549959794        4.0805984686       -2.0488544434
 H          1.3376462992        1.1591677283       -2.3879186721
