  62
        -98.94268839
 C          2.0319167664        0.6548911046       -0.4611046575
 C          1.0213354825        1.2627879467       -1.2416079839
 C          0.4512936618        2.5074382612       -0.7130350290
 C          0.8888260441        2.9880718820        0.4642089016
 C          0.4295800665        4.2512221721        1.1419034511
 C         -1.0344665090        4.2480292350        1.6237967181
 C         -2.0191977810        4.8930503493        0.6404094203
 H         -2.7421828532        5.4851617286        1.2051888852
 H         -1.4729015113        5.5893850424        0.0026102503
 C         -2.8198033038        3.9219252760       -0.2323073462
 H         -3.6331130257        3.4972518428        0.3611380254
 H         -3.2687929879        4.4956959946       -1.0463719670
 C         -2.0353201104        2.7500846882       -0.8235822401
 H         -2.6705838509        2.2630821073       -1.5673510955
 H         -1.8467155956        2.0079155323       -0.0430124647
 C         -0.6871309499        3.1316213360       -1.4680115430
 H         -0.6389665965        2.7417139465       -2.4871116081
 H         -0.5725935477        4.2140100351       -1.5076413963
 H         -1.3350589360        3.2245295950        1.8523140736
 H         -1.0654125422        4.8102556161        2.5587006260
 H          1.0898978795        4.3788197693        2.0020832184
 H          0.5909095402        5.0949627356        0.4669881382
 O          1.8603654783        2.3719322251        1.1892525870
 C          2.4233088179        1.1760263538        0.7717651136
 O          3.2557481924        0.6994723740        1.5679215312
 O          0.6075811797        0.7825870284       -2.3327241812
 C          2.5980772129       -0.6865434515       -0.9011254574
 C          2.1424899599       -1.7171786345        0.1035722592
 C          2.9908385441       -2.5471498521        0.8216766803
 C          2.4778425530       -3.3811878946        1.8017694743
 C          1.1274648341       -3.3889837099        2.0972815420
 C          0.2662512111       -2.5743773786        1.3673031291
 C          0.7773881119       -1.7809620397        0.3565915912
 H          0.1124937381       -1.1486632980       -0.2084063236
 N         -1.1084601651       -2.5567021092        1.6312972720
 S         -2.0850575067       -1.2415188803        1.2839285159
 O         -1.3667179561        0.0106246605        1.3198578285
 O         -3.1825605130       -1.3673545126        2.2213058604
 C         -2.6958075777       -1.6178270674       -0.3468651213
 C         -2.2649867566       -0.9283040053       -1.4611158306
 C         -2.7636834490       -1.2863649773       -2.7048238064
 C         -3.6790433249       -2.3205023610       -2.8145893446
 C         -4.1057443083       -3.0027536998       -1.6845712444
 C         -3.6107711020       -2.6502123902       -0.4406321293
 H         -3.9235724171       -3.1446509215        0.4639550370
 H         -4.8196599271       -3.8059363963       -1.7707527164
 H         -4.0616504969       -2.5941179976       -3.7852267368
 H         -2.4218660065       -0.7523933805       -3.5772200607
 H         -1.5471658771       -0.1289473317       -1.3635436915
 H         -1.3951451443       -3.0383440821        2.4696421156
 H          0.7396059482       -4.0121442249        2.8886940289
 H          3.1460121789       -4.0174055832        2.3625002695
 H          4.0515715370       -2.5269938644        0.6333488139
 H          2.1210618575       -0.9056448616       -1.8674698794
 C          4.0967300093       -0.6276479796       -1.0923641791
 C          4.7734573681       -1.6099891360       -1.9999354955
 C          4.6452285674       -0.1749657966       -2.4112279544
 H          5.5300646665        0.4435949124       -2.4152113399
 H          3.9347810102        0.0753107989       -3.1854253264
 H          5.7500932053       -1.9781043410       -1.7246339263
 H          4.1519070736       -2.3375301343       -2.4993375732
 H          4.6197229680       -0.3094284468       -0.1979617638
