  62
        -98.94033295
 C         -2.6367220103       -1.1463042079        0.2755079566
 C         -2.5702310185       -0.3129485651       -0.8690287765
 C         -3.4228726115        0.8841400634       -0.8348042268
 C         -4.2035654409        1.1268888855        0.2325745017
 C         -5.1410129309        2.2918287032        0.3999100155
 C         -4.4632880775        3.5664383116        0.9215624064
 C         -3.5608284537        4.2822516211       -0.0844605174
 H         -4.1119090911        4.4487595465       -1.0104371185
 H         -3.3269384485        5.2621662810        0.3364071290
 C         -2.2464176767        3.5498199614       -0.3900179758
 H         -2.0566865666        2.8038082289        0.3857142840
 H         -1.4173248887        4.2603225237       -0.3578452980
 C         -2.2044337456        2.8650619295       -1.7563869692
 H         -1.2481633838        2.3436796885       -1.8496977232
 H         -2.2568370562        3.6189369344       -2.5448402243
 C         -3.3246049960        1.8415196363       -1.9838308345
 H         -4.2754004334        2.3504906617       -2.1399211909
 H         -3.0831300745        1.2637065539       -2.8791590991
 H         -5.2549307612        4.2563995426        1.2226277515
 H         -3.8860129854        3.3145414557        1.8145137547
 H         -5.6360775996        2.5031483354       -0.5481973613
 H         -5.8961139356        1.9820595840        1.1256940789
 O         -4.2365511833        0.3031234082        1.3148610671
 C         -3.4314640479       -0.8236755524        1.3776723862
 O         -3.5089846351       -1.4458256131        2.4569905965
 O         -1.8447001024       -0.5410032613       -1.8693269628
 C         -1.7702186368       -2.3874138315        0.4034485227
 C         -0.3595583300       -2.0726184278       -0.0345343027
 C          0.3280631074       -2.7859375294       -1.0064072593
 C          1.6242971092       -2.4369767604       -1.3446332439
 C          2.2597421421       -1.3748864613       -0.7293834430
 C          1.5833778286       -0.6565971902        0.2483690589
 C          0.2909762362       -1.0170975980        0.5944268481
 H         -0.2360354960       -0.4570503903        1.3590998480
 N          2.2134317775        0.4385705602        0.8665369149
 S          3.7446024289        0.2094428389        1.5159509270
 O          3.9389562782       -1.1575867952        1.9414492744
 O          3.8765018941        1.2247337200        2.5385159001
 C          4.8459897362        0.5944683377        0.1714762981
 C          5.7994885610       -0.3239146803       -0.2219374992
 C          6.6537273156        0.0021497438       -1.2639608691
 C          6.5403330401        1.2342303380       -1.8895407715
 C          5.5786932818        2.1463507284       -1.4805981843
 C          4.7225223723        1.8272314855       -0.4388622529
 H          3.9643714179        2.5082320482       -0.0894896760
 H          5.4930305782        3.1033397203       -1.9696910992
 H          7.2051807039        1.4855280607       -2.7007886555
 H          7.4019864748       -0.7053410204       -1.5832479807
 H          5.8464203497       -1.2716205072        0.2904056138
 H          1.6222444147        0.9317460084        1.5196428760
 H          3.2650300368       -1.0948352374       -0.9986951574
 H          2.1443196507       -2.9963047000       -2.1073320214
 H         -0.1567866872       -3.6017919204       -1.5163078202
 H         -1.7400032489       -2.6018304298        1.4854674983
 C         -2.3493384495       -3.6262973116       -0.2634921091
 C         -3.8271831576       -3.7766151799       -0.4645634068
 C         -2.9249290062       -3.5957352060       -1.6462019978
 H         -2.7525965724       -4.4449640564       -2.2912145841
 H         -2.9313509326       -2.6486984515       -2.1614027666
 H         -4.2699494821       -4.7467426158       -0.2951419816
 H         -4.4599462066       -2.9519059506       -0.1694095111
 H         -1.8134909697       -4.5261190643        0.0231785483
