  62
        -98.93977068
 C         -1.4864108430       -1.5254630027       -0.0507267225
 C         -1.5216723415       -0.1321860406        0.1837186326
 C         -2.8428362312        0.4557606713        0.4869448602
 C         -3.9153408116       -0.3554302504        0.5454037475
 C         -5.3520173744        0.0174241978        0.7997544470
 C         -6.0225597438        0.6649393546       -0.4224842924
 C         -5.1777167805        1.7159741896       -1.1376206962
 H         -4.2384551587        1.2618411486       -1.4580039061
 H         -5.7173103213        2.0161357951       -2.0398739724
 C         -4.8837666055        2.9764628817       -0.3276376592
 H         -4.3618803642        3.6720363339       -0.9896719561
 H         -5.8276400100        3.4424374541       -0.0358257014
 C         -4.0282974184        2.7811955923        0.9261851455
 H         -4.6169883076        2.3712564301        1.7424181584
 H         -3.6967842400        3.7716790838        1.2509763019
 C         -2.7693897109        1.9465330386        0.7132582235
 H         -2.1104736863        2.0771755083        1.5798134233
 H         -2.2084295533        2.3504056246       -0.1367406561
 H         -6.9670748560        1.1085347943       -0.1026452500
 H         -6.2485425221       -0.1261561212       -1.1418129600
 H         -5.8798557639       -0.9096451602        1.0344578921
 H         -5.4214151655        0.6658265307        1.6681882245
 O         -3.8262305542       -1.7009019140        0.3312354805
 C         -2.6282352384       -2.3187668046        0.0294143976
 O         -2.7054800729       -3.5542038348       -0.1334466386
 O         -0.4999963448        0.5992034376        0.1398719656
 C         -0.1660116375       -2.1898034039       -0.3944316616
 C          0.8573217192       -1.8584171609        0.6633695190
 C          0.5408259243       -2.0877694515        2.0005184540
 C          1.4369763280       -1.7723385110        3.0025576984
 C          2.6636247785       -1.2087624946        2.6955008341
 C          2.9934713996       -0.9878498614        1.3645170803
 C          2.0994737923       -1.3272840972        0.3576344472
 H          2.3918612265       -1.1639916401       -0.6651465179
 N          4.2317369191       -0.4313768436        1.0182912400
 S          4.3874629032        0.5372277661       -0.3322161523
 O          4.4206464227       -0.2753887435       -1.5232030643
 O          5.5863114013        1.3078777385       -0.0724081132
 C          2.9753600619        1.6254900077       -0.3648421627
 C          2.6812757484        2.3634102492        0.7633350878
 C          1.6075813172        3.2364275974        0.7302227092
 C          0.8537229514        3.3611840706       -0.4251492369
 C          1.1636775886        2.6161288755       -1.5502254665
 C          2.2332659952        1.7374282567       -1.5213886577
 H          2.5024022953        1.1313840726       -2.3725973024
 H          0.5693698051        2.7072466106       -2.4459636232
 H          0.0144881900        4.0387393672       -0.4462278583
 H          1.3565848727        3.8118999615        1.6069759097
 H          3.2877696939        2.2502642647        1.6476013956
 H          4.7870005691       -0.0976637832        1.7916899006
 H          3.3593562540       -0.9466112985        3.4778340942
 H          1.1755566290       -1.9546876459        4.0341795393
 H         -0.4254703887       -2.5104807163        2.2419112499
 H         -0.3500696855       -3.2738797581       -0.3759746753
 C          0.2635142539       -1.7876305767       -1.7899722919
 C          1.1540808593       -2.6840582937       -2.5948706295
 C         -0.2883019339       -2.5261045678       -2.9703519798
 H         -0.5325826574       -1.9672917590       -3.8613430508
 H         -0.9627475796       -3.3464304810       -2.7712547625
 H          1.9079837403       -2.2342911506       -3.2239764936
 H          1.4616701524       -3.6162012862       -2.1451928414
 H          0.3956801936       -0.7156142950       -1.8880467858
