  62
        -98.93562579
 C          2.1123365837        0.8925750228        0.3099692226
 C          2.9587527525        0.2843725957        1.2688532259
 C          3.7599385681       -0.8653644214        0.8150447744
 C          3.6026094211       -1.3105620366       -0.4433043411
 C          4.3548365481       -2.4208768220       -1.1232789158
 C          5.5709228769       -1.8654438905       -1.8844095699
 C          6.8478259705       -1.7366936651       -1.0545728765
 H          7.2405792214       -2.7337058788       -0.8444523017
 H          7.5845489031       -1.2176046636       -1.6718686961
 C          6.6964037522       -0.9821174686        0.2688348494
 H          6.0779745891       -0.0953957537        0.1178564315
 H          7.6865345372       -0.6369821571        0.5725251786
 C          6.1056687730       -1.8464876237        1.3926429460
 H          6.7429883781       -1.7755072044        2.2764264217
 H          6.1212368419       -2.8914942680        1.0835994525
 C          4.6873481956       -1.4617379877        1.8388703586
 H          4.2016141371       -2.3390865579        2.2795315565
 H          4.7461403372       -0.7088583333        2.6312433127
 H          5.2943180183       -0.8887258677       -2.2900369154
 H          5.7827085900       -2.5214875543       -2.7311265310
 H          3.6658346346       -2.8665581979       -1.8440428542
 H          4.6522018371       -3.1812987953       -0.4070939623
 O          2.7249896532       -0.7419595163       -1.3142305889
 C          1.9600742811        0.3643436450       -0.9730050915
 O          1.2070274473        0.7562047506       -1.8828388560
 O          3.0436759328        0.6868239913        2.4608721684
 C          1.2939817228        2.0925383505        0.7528140958
 C         -0.1512169569        1.9061339082        0.3636056236
 C         -0.8550522074        2.7856568912       -0.4471810784
 C         -2.1775762574        2.5337844776       -0.7690648648
 C         -2.8259473841        1.4108868388       -0.2898765735
 C         -2.1290021033        0.5198148164        0.5159701634
 C         -0.8070970546        0.7777665966        0.8416831254
 H         -0.2620325173        0.0791436967        1.4660588548
 N         -2.7794585967       -0.6220752381        1.0169901745
 S         -3.6413944030       -1.5866802227       -0.0546719135
 O         -3.6594207628       -2.8980602068        0.5580611275
 O         -3.1097350613       -1.5108630495       -1.3953681506
 C         -5.2856422332       -0.9043557932       -0.0041302537
 C         -5.8967790591       -0.4918267177       -1.1718522487
 C         -7.1792515423        0.0310018754       -1.1083665885
 C         -7.8243533117        0.1299995460        0.1148451955
 C         -7.1978232298       -0.2920366875        1.2781256310
 C         -5.9164228629       -0.8162586145        1.2214891690
 H         -5.3959407299       -1.1592618959        2.0999670268
 H         -7.7029108971       -0.2140443617        2.2273706701
 H         -8.8215728912        0.5381969933        0.1616992202
 H         -7.6678745094        0.3585959865       -2.0119335757
 H         -5.3536129013       -0.5836370063       -2.0991823514
 H         -2.1928749655       -1.1929659514        1.6085937698
 H         -3.8535278445        1.2093999252       -0.5445360951
 H         -2.7109789831        3.2222626258       -1.4066484331
 H         -0.3617910671        3.6548558666       -0.8495695430
 H          1.3501088616        2.0647641313        1.8543265407
 C          1.8691350292        3.4353107083        0.3284806363
 C          3.3385125518        3.6030419215        0.0855989118
 C          2.3753264812        3.6934847183       -1.0578965307
 H          2.1933439984        4.6638832372       -1.4963776439
 H          2.3326291439        2.8804941960       -1.7653952439
 H          3.8165290727        4.5070683927        0.4318137109
 H          3.9617118405        2.7235723079        0.1607420105
 H          1.3695859396        4.2617243419        0.8246138052
