  62
        -98.94112085
 C         -1.6045583800       -1.4822399608       -0.1895496875
 C         -2.7180987117       -0.9131054975        0.4636531569
 C         -3.2731301675        0.3243010793       -0.1159782429
 C         -2.6910712659        0.8405402682       -1.2148377317
 C         -3.0468725116        2.1094124388       -1.9420280351
 C         -2.5262223729        3.3593330118       -1.2137985605
 C         -2.7370717511        3.3566966713        0.2980645350
 H         -2.2346214871        2.4830735839        0.7195037908
 H         -2.2269760311        4.2353884760        0.7034222097
 C         -4.1918652877        3.4019833182        0.7606860441
 H         -4.1819763258        3.4602895858        1.8523217087
 H         -4.6544727725        4.3171945474        0.3839880476
 C         -5.0683535187        2.2155657900        0.3543706100
 H         -5.9916229015        2.2805357867        0.9377932509
 H         -5.3575326508        2.2853413984       -0.6906299874
 C         -4.4682614067        0.8438465019        0.6470945176
 H         -4.1882565693        0.7969213492        1.7059738705
 H         -5.2533085210        0.0876276439        0.5223443200
 H         -2.9983829189        4.2406901343       -1.6519022864
 H         -1.4485577590        3.4242741785       -1.3854906979
 H         -2.5679592082        2.0556776771       -2.9221856398
 H         -4.1201814629        2.1661156372       -2.0974930478
 O         -1.6139893521        0.2589927396       -1.8107664506
 C         -1.0185341884       -0.8752905284       -1.3002104833
 O         -0.0048522142       -1.2523032474       -1.9198580908
 H         -0.1601755003       -0.5794681020        1.7483090841
 C          0.6926741841       -1.1684002105        1.4325921243
 C          0.4824220594       -2.3586176035        0.7463297786
 C          1.5910655884       -3.0999276790        0.3601401828
 C          2.8713890392       -2.6350592411        0.6118262855
 C          3.0725624347       -1.4125255527        1.2269961401
 C          1.9688634106       -0.6800860073        1.6414942988
 N          2.1686936495        0.6294485496        2.1745363213
 S          1.8894606091        1.7719694495        0.9546472657
 O          2.1382385936        3.0630003737        1.5627316776
 O          0.5769360822        1.6115720476        0.3674044523
 C          3.1710924591        1.3789057121       -0.2097079612
 C          4.4294519257        1.9075029909        0.0049445985
 C          5.4560955665        1.5642615986       -0.8591770276
 C          5.2078821039        0.6966065144       -1.9126805440
 C          3.9393680018        0.1739659494       -2.1115365893
 C          2.9048845473        0.5144834383       -1.2529677412
 H          1.9090566787        0.1167886896       -1.3824981644
 H          3.7414104729       -0.5038615190       -2.9262966979
 H          6.0073977001        0.4246996566       -2.5837325239
 H          6.4436534214        1.9692149966       -0.7075968315
 H          4.5697247982        2.5770074600        0.8376087962
 H          1.5363799241        0.8370545469        2.9374415763
 H          4.0621117514       -1.0154317198        1.3841769960
 H          3.7221378531       -3.2186682736        0.2962132310
 H          1.4518647925       -4.0333093706       -0.1604107659
 C         -0.9416703702       -2.7157592181        0.4015065670
 H         -1.4911132288       -2.9318733358        1.3297293250
 C         -1.0648798746       -3.8993290804       -0.5331843694
 C         -1.0536769036       -5.2954500232        0.0124604724
 C         -2.3260447908       -4.7080943668       -0.5176444032
 H         -2.7144526841       -5.0743233926       -1.4559693130
 H         -3.0916420300       -4.4179459674        0.1871660974
 H         -0.5706243222       -6.0702573801       -0.5632155592
 H         -0.9579794811       -5.4134944310        1.0811449643
 H         -0.5983769811       -3.7182917074       -1.4949461075
 O         -3.2261631867       -1.4087454349        1.5092406641
