  62
        -98.94588617
 C         -1.6902287113       -1.3016786845        0.4227022354
 C         -1.3000036864       -0.2151622163       -0.3963356095
 C         -1.8980796269        1.0837750884       -0.0666914581
 C         -2.7029316392        1.1999864488        1.0035499643
 C         -3.3631019239        2.4634105511        1.4851829709
 C         -4.6729953469        2.8029042115        0.7601038107
 C         -4.5137161824        3.3012159251       -0.6769504675
 H         -5.4800695239        3.7066372927       -0.9832249988
 H         -3.7949395818        4.1209285973       -0.6967450219
 C         -4.0915480166        2.2186637151       -1.6800290787
 H         -4.2703107810        1.2320196067       -1.2464245708
 H         -4.7111757019        2.2915551010       -2.5764893970
 C         -2.6325781187        2.3052787212       -2.1280753382
 H         -2.4731582761        3.2344944093       -2.6791768151
 H         -2.4325455943        1.4718409161       -2.8059580357
 C         -1.6166364511        2.2383781179       -0.9799760516
 H         -0.6205778679        2.0913556450       -1.4046629144
 H         -1.6163063184        3.1725884617       -0.4184326015
 H         -5.3161464926        1.9197828293        0.7712730587
 H         -5.1712989808        3.5834046954        1.3397583238
 H         -3.5832166965        2.3130332539        2.5445744499
 H         -2.6645714945        3.2960947533        1.3940145662
 O         -3.0005342491        0.1461245828        1.8105561101
 C         -2.5041339575       -1.1190555510        1.5422278976
 O         -2.8504066005       -1.9891979343        2.3682442842
 H          0.6252801313       -1.4063167771        1.7012961287
 C          1.1086182832       -1.8840381276        0.8604513525
 C          0.3500811178       -2.6135262961       -0.0479115094
 C          0.9983356080       -3.2152296661       -1.1185535998
 C          2.3658314171       -3.0715032995       -1.2813609378
 C          3.1083855173       -2.3071786007       -0.4005896596
 C          2.4676231886       -1.7011851422        0.6740906214
 N          3.1680963590       -0.8813470945        1.5861957376
 S          2.7656317794        0.7469042619        1.5893428533
 O          3.6289454071        1.3460982067        2.5854734662
 O          1.3487934742        0.9045515922        1.7943498559
 C          3.2523002626        1.3228182548       -0.0284436851
 C          4.4626476118        1.9775026076       -0.1587731795
 C          4.8838727317        2.3676630731       -1.4193360663
 C          4.0955705524        2.0880431469       -2.5257239425
 C          2.8867875207        1.4261731653       -2.3776835641
 C          2.4557137047        1.0349060281       -1.1185966641
 H          1.5163837081        0.5200319922       -0.9837641672
 H          2.2686992984        1.2035503908       -3.2327788290
 H          4.4237798699        2.3874280644       -3.5086308592
 H          5.8231617194        2.8840774740       -1.5348978189
 H          5.0394155079        2.1739327432        0.7307067267
 H          4.1735740543       -0.9664776746        1.5155705940
 H          4.1701550292       -2.1720305975       -0.5429543687
 H          2.8556166580       -3.5441919623       -2.1189325686
 H          0.4315861218       -3.7799444410       -1.8402888736
 C         -1.1365081891       -2.6993588287        0.2012282540
 H         -1.2844442076       -3.2185790494        1.1633004299
 C         -1.8841066133       -3.5068673707       -0.8501570061
 C         -3.3103293124       -3.1969899227       -1.1921040660
 C         -2.2268948002       -2.9375648078       -2.1928798976
 H         -2.1637865224       -3.5841653191       -3.0558179642
 H         -1.9381806495       -1.9171017492       -2.3867438324
 H         -3.7703252847       -2.3515393665       -0.7006420003
 H         -3.9862921552       -4.0216342563       -1.3622226929
 H         -1.6211214513       -4.5595921996       -0.8170977209
 O         -0.4951878589       -0.3123886366       -1.3590153102
