  62
        -98.93109671
 C         -2.4865137021       -1.2710431974       -0.3229034792
 C         -2.1407284718        0.0741435277       -0.0519129399
 C         -3.2163322254        0.9480434214        0.4696208602
 C         -4.4369160588        0.4265606490        0.6871541130
 C         -5.6830339025        1.1184304626        1.1733408878
 C         -6.3469587153        1.9793647071        0.0875985515
 C         -5.3851864753        2.8510990698       -0.7148185070
 H         -4.6429671903        2.2137917064       -1.1986473432
 H         -5.9604610583        3.3379954719       -1.5066174761
 C         -4.6751078574        3.9407703285        0.0850781481
 H         -5.4216847525        4.5851549099        0.5543769950
 H         -4.1117223952        4.5496834573       -0.6265262301
 C         -3.7033167516        3.4549235083        1.1636514439
 H         -4.2317399737        3.1379355781        2.0588243717
 H         -3.0869340290        4.3101618853        1.4559591079
 C         -2.7419821039        2.3617870811        0.7076144466
 H         -2.2519315095        2.6802211981       -0.2198056275
 H         -1.9320834381        2.2773719485        1.4430150811
 H         -7.1031009051        2.6075284341        0.5615127811
 H         -6.8540545732        1.3101616331       -0.6118417227
 H         -5.4619947016        1.7114097681        2.0558075776
 H         -6.3809661773        0.3315753114        1.4683264256
 O         -4.7159582284       -0.8856625627        0.4400775619
 C         -3.7678689442       -1.7585207236       -0.0508482942
 O         -4.1767058107       -2.9278378896       -0.1991557604
 O         -0.9949563930        0.5600833578       -0.2412031225
 C         -1.4808853638       -2.2901756432       -0.8348905168
 C         -0.2364941707       -2.2393685771        0.0154909298
 C         -0.2687484868       -2.7948198590        1.2910818760
 C          0.8373013830       -2.7282192456        2.1170390439
 C          1.9958250758       -2.1027289699        1.6905041834
 C          2.0327030541       -1.5341328850        0.4248573150
 C          0.9238581487       -1.6142075267       -0.4089732224
 H          0.9529860616       -1.1506105045       -1.3826351464
 N          3.2045872111       -0.8994042907       -0.0286357827
 S          4.0819699754        0.0332012617        1.0715397251
 O          4.8708072980       -0.8541002302        1.8910779067
 O          3.2120721794        0.9404221575        1.7860832525
 C          5.1489223995        0.9309997488       -0.0380676126
 C          6.3644699309        0.3784425308       -0.3936865904
 C          7.1788015818        1.0657813452       -1.2797124341
 C          6.7657920749        2.2861090294       -1.7931657404
 C          5.5430962785        2.8284521208       -1.4263179503
 C          4.7232819830        2.1457622031       -0.5414924115
 H          3.7684094002        2.5336026449       -0.2229118803
 H          5.2253516963        3.7784274554       -1.8252027475
 H          7.4012805349        2.8201637625       -2.4818283086
 H          8.1309217181        0.6490373033       -1.5659423420
 H          6.6456567721       -0.5679551676        0.0376712507
 H          3.0355313683       -0.3761708123       -0.8774025776
 H          2.8609628719       -2.0314211828        2.3298320664
 H          0.7984875378       -3.1620462123        3.1053107712
 H         -1.1792218307       -3.2696620815        1.6318828720
 H         -1.9633563467       -3.2660789611       -0.6648266088
 C         -1.1916004269       -2.2083904900       -2.3261860005
 C         -2.2971740960       -1.9145916840       -3.2950557166
 C         -1.1913840686       -0.9240445254       -3.0968580764
 H         -0.4649179747       -0.8069525889       -3.8881106147
 H         -1.4035077253       -0.0126767297       -2.5614577565
 H         -2.3349442485       -2.4702715455       -4.2197665844
 H         -3.2691023556       -1.6866883462       -2.8814025996
 H         -0.4678630991       -2.9579422527       -2.6323117631
