  62
        -98.94481870
 C         -0.9239582350       -1.1584996890        0.6833263555
 C         -1.1663893260       -0.4361308747       -0.5113120261
 C         -2.1081089629        0.6889932689       -0.3893698472
 C         -2.5248470821        1.0732016589        0.8291651054
 C         -3.5281731979        2.1580905878        1.0916946460
 C         -4.9502353090        1.5827922237        1.1642458586
 C         -5.3003875705        0.6490182778        0.0049821457
 H         -4.6763102301       -0.2457614390        0.0659579828
 H         -6.3340570291        0.3273461312        0.1499562061
 C         -5.1514187780        1.2773172959       -1.3878873522
 H         -6.0271300652        1.0132827438       -1.9844163841
 H         -5.1337008573        2.3643267473       -1.3026441222
 C         -3.9218641643        0.8093257972       -2.1693136021
 H         -4.0334667564        1.1384183980       -3.2056031796
 H         -3.8878634572       -0.2831432255       -2.1756385264
 C         -2.5732487707        1.3369993299       -1.6620768195
 H         -1.8129964721        1.1007843759       -2.4116959837
 H         -2.6277413661        2.4204626849       -1.5500925474
 H         -5.6583682548        2.4129806212        1.1920287133
 H         -5.0494862786        1.0214439855        2.0964941510
 H         -3.4692674939        2.9041801851        0.3015974451
 H         -3.2880867182        2.6292448582        2.0465801718
 O         -2.1063064412        0.4736486352        1.9748107733
 C         -1.3468499540       -0.6844798582        1.9271617456
 O         -1.1043748313       -1.1823302068        3.0458180643
 O         -0.6538453112       -0.7148487789       -1.6239243540
 C         -0.1354284340       -2.4555961559        0.6845106070
 C          1.1189404897       -2.3124181204       -0.1396457037
 C          1.3882414005       -3.0614618344       -1.2774999699
 C          2.5718165844       -2.8770407627       -1.9697366573
 C          3.5056027093       -1.9497055488       -1.5458567903
 C          3.2455490240       -1.1970140005       -0.4059406340
 C          2.0605475218       -1.3835756913        0.2863967147
 H          1.8674725439       -0.8016030556        1.1765923629
 N          4.1831041113       -0.2654303387        0.0641696164
 S          3.6977305959        1.1121415776        0.8600117163
 O          4.8446478650        1.9921985694        0.7702140975
 O          3.2594175950        0.7971982442        2.1972143037
 C          2.3595972649        1.8168005071       -0.0849866569
 C          1.2261512947        2.2526716427        0.5683760872
 C          0.2379339384        2.8969815343       -0.1580240682
 C          0.3942854099        3.0803748639       -1.5224220821
 C          1.5298482001        2.6191611501       -2.1686884386
 C          2.5274876734        1.9889554689       -1.4444746689
 H          3.4298289167        1.6387552835       -1.9183620031
 H          1.6424055195        2.7538238370       -3.2323132069
 H         -0.3732975725        3.5865339569       -2.0856539933
 H         -0.6466642329        3.2511421963        0.3467937436
 H          1.1363224148        2.0799753155        1.6302048931
 H          4.9756331873       -0.1035057457       -0.5388459301
 H          4.4287527063       -1.8079241184       -2.0865500697
 H          2.7676147077       -3.4603265453       -2.8565698404
 H          0.6622466637       -3.7726096546       -1.6352185070
 H          0.1744294756       -2.6001396104        1.7331930295
 C         -0.9693329608       -3.6719708641        0.3054843472
 C         -2.4324535882       -3.7298176352        0.6267774313
 C         -1.9814211942       -3.6421957095       -0.7986191867
 H         -2.0853367990       -4.5185874923       -1.4214636543
 H         -2.1183028576       -2.7123944957       -1.3272940474
 H         -2.8433459893       -4.6622296491        0.9837695146
 H         -2.8785754645       -2.8562423238        1.0806527105
 H         -0.4148267897       -4.5963871895        0.4346574676
