  62
        -98.93896103
 C          1.9184817828        1.3978964904        0.2793740785
 C          2.5490936676        0.7309197324       -0.7962186456
 C          3.7032239646       -0.1206497620       -0.4533336816
 C          4.0923832259       -0.2259888098        0.8310841068
 C          5.2449660715       -0.9784863220        1.4629425654
 C          5.9728697903       -2.0795978426        0.6959283852
 C          5.1295440022       -3.3185003730        0.3962556252
 H          5.7202929763       -3.9894837412       -0.2310943105
 H          4.9252464029       -3.8369470369        1.3365986021
 C          3.7884724461       -3.0560882098       -0.2851786770
 H          3.2982084616       -4.0208962980       -0.4426199308
 H          3.1453412301       -2.4768389088        0.3810370927
 C          3.8669309282       -2.3493758704       -1.6373876983
 H          2.8656643029       -2.3709568800       -2.0770008522
 H          4.5353451091       -2.9007983420       -2.3013880742
 C          4.3197589031       -0.8791975683       -1.5925043284
 H          5.4037574816       -0.7980957355       -1.5694921228
 H          3.9721763185       -0.3925445033       -2.5084420374
 H          6.4012837233       -1.6819567448       -0.2192546197
 H          6.8090821357       -2.3953832584        1.3256855699
 H          5.9775230699       -0.2159106004        1.7498180992
 H          4.8517112406       -1.3936480226        2.3964176304
 O          3.4518674967        0.4435771709        1.8349000479
 C          2.3511585809        1.2474883570        1.5941970889
 O          1.8499688959        1.7556203837        2.6183250970
 H         -0.0918661737       -0.1729427974        0.6861008989
 C         -0.6637249198        0.2035726891       -0.1537198783
 C         -0.3813904935        1.4710967068       -0.6489439333
 C         -1.1368374345        1.9472038776       -1.7121913091
 C         -2.1208571519        1.1579680629       -2.2835568007
 C         -2.3788310268       -0.1131371174       -1.8060579247
 C         -1.6430608209       -0.5909866727       -0.7284428027
 N         -1.9097455098       -1.8745364958       -0.2215305154
 S         -3.5115901794       -2.2987640306        0.0143063772
 O         -3.4929691676       -3.2715683380        1.0843452377
 O         -4.0833565704       -2.7461856566       -1.2311782056
 C         -4.3181939696       -0.7975556980        0.5426979504
 C         -3.8655778378       -0.1888882548        1.6966650768
 C         -4.4530908158        0.9976813052        2.1035290351
 C         -5.4785570647        1.5527310222        1.3530169613
 C         -5.9257285782        0.9264575636        0.2002443857
 C         -5.3397876469       -0.2594809860       -0.2128145253
 H         -5.6532668987       -0.7775845967       -1.1043615570
 H         -6.7245392393        1.3594814127       -0.3797763215
 H         -5.9306383834        2.4788202598        1.6710746739
 H         -4.1050916128        1.4855405294        3.0000182948
 H         -3.0687392430       -0.6469420198        2.2611518778
 H         -1.3422488207       -2.1287010275        0.5731223916
 H         -3.1270059719       -0.7474012608       -2.2530968189
 H         -2.6912204289        1.5367452989       -3.1176590515
 H         -0.9484231052        2.9335916860       -2.1023813508
 C          0.7077398478        2.2749814780        0.0206059153
 H          0.3417992790        2.5873518615        1.0098937216
 C          1.1139291364        3.5082940054       -0.7594587715
 C          0.3773299517        4.7996288564       -0.5722221748
 C          1.7639345433        4.6420105281       -0.0266792827
 H          2.5736128568        5.1703279726       -0.5072933578
 H          1.8876837339        4.5344587916        1.0414372331
 H          0.2365002049        5.4421353034       -1.4282753548
 H         -0.4428238965        4.8109506083        0.1294139901
 H          1.4915822535        3.2688164358       -1.7467797808
 O          2.1713057975        0.8387926459       -1.9913169924
