  62
        -98.93743983
 C         -1.9408815002       -1.4852538591        0.2831622399
 C         -1.9969637294       -0.3401089392        1.1166504600
 C         -2.9794089490        0.6990614513        0.7677397903
 C         -3.7534115593        0.5304432218       -0.3206529996
 C         -4.8666138490        1.3800072824       -0.8976612893
 C         -5.0854753382        2.8111089925       -0.4146857891
 C         -3.9774742077        3.7906252720       -0.8014068192
 H         -4.0262150179        3.9582417821       -1.8803773692
 H         -4.1764354572        4.7444643920       -0.3081436491
 C         -2.5552647079        3.3447890113       -0.4698844395
 H         -1.8744210676        4.1225329710       -0.8252231296
 H         -2.3185700385        2.4328539512       -1.0215721796
 C         -2.2685475578        3.1149349110        1.0123824104
 H         -2.5209891272        4.0127140410        1.5799371805
 H         -1.1947545278        2.9383119604        1.1176696002
 C         -2.9933013982        1.9163095513        1.6468395104
 H         -2.4549841582        1.6414788709        2.5585670603
 H         -4.0101234580        2.1733624417        1.9337203706
 H         -6.0110746081        3.1591889230       -0.8813511489
 H         -5.2519459680        2.8239572925        0.6584389309
 H         -4.7067648992        1.3872118625       -1.9806050593
 H         -5.7883473792        0.8123997829       -0.7281435292
 O         -3.6469331100       -0.5780056981       -1.1080444697
 C         -2.7398561704       -1.5946261786       -0.8537089200
 O         -2.7638849210       -2.5035307385       -1.7054008800
 O         -1.2585861592       -0.1975355496        2.1286072499
 C         -0.9237011106       -2.5506309097        0.6575480396
 C          0.3539619594       -2.3023859702       -0.1072952506
 C          0.4548754490       -2.5659514101       -1.4690743506
 C          1.6281847090       -2.2898698207       -2.1477956708
 C          2.7206048094       -1.7513039213       -1.4894552210
 C          2.6247716698       -1.4714332213       -0.1322784709
 C          1.4456773298       -1.7500112308        0.5475789993
 H          1.3673514201       -1.5188703309        1.6013038193
 N          3.7295846602       -0.9406055420        0.5596847089
 S          4.4956573107        0.4419346477        0.0181647289
 O          4.9923068204        0.2181458876       -1.3153604712
 O          5.4814805211        0.7454066971        1.0291135088
 C          3.2489068914        1.7177482483       -0.0030619907
 C          2.3351397312        1.7522744689       -1.0378975706
 C          1.3606031217        2.7374676994       -1.0351100803
 C          1.3192483023        3.6674470393       -0.0075963402
 C          2.2388277025        3.6140160487        1.0283103496
 C          3.2109388920        2.6271533383        1.0351299894
 H          3.9502220321        2.5525404178        1.8163583592
 H          2.2001425430        4.3363226787        1.8278178197
 H          0.5671438427        4.4406135897       -0.0159145400
 H          0.6373698116        2.7758903298       -1.8341753901
 H          2.4013290807        1.0206271689       -1.8268431106
 H          3.5816896104       -0.8738062420        1.5566662990
 H          3.6382061294       -1.5308786917       -2.0105026611
 H          1.6959170287       -2.4997907106       -3.2048236509
 H         -0.3996197513       -2.9655939897       -1.9929171605
 H         -0.7105647803       -2.3815724699        1.7217623396
 C         -1.4226937113       -3.9705510994        0.4920942496
 C         -0.7035334818       -5.0739131998        1.2067959393
 C         -2.0716926815       -4.6573833792        1.6545387896
 H         -2.9031207518       -5.3186471088        1.4621894897
 H         -2.1597996710       -4.1047076792        2.5786886697
 H         -0.5921021723       -6.0239005698        0.7073100792
 H          0.1374879885       -4.8030086403        1.8273319992
 H         -1.8210827516       -4.1828402891       -0.4906060104
