  62
        -98.93873031
 C         -1.2123247997       -1.3983270202       -0.0985767003
 C         -2.0868710798       -0.8904573206        0.8987258798
 C         -2.9322797803        0.2499201291        0.5184615899
 C         -2.8350005706        0.7457394092       -0.7279532901
 C         -3.6783260610        1.8509550389       -1.2975915900
 C         -5.0757917209        1.3097484084       -1.6610413599
 C         -6.2152020810        1.8999210080       -0.8300818998
 H         -6.4207647314        2.9140639779       -1.1792717297
 H         -7.1060860708        1.2987257176       -1.0239843797
 C         -5.9759760309        1.9644404180        0.6816303202
 H         -6.9463725709        2.1463344976        1.1483738003
 H         -5.3516483812        2.8273544182        0.9178508902
 C         -5.3505135504        0.7159846282        1.3175024501
 H         -5.8279130502        0.5540190080        2.2860375102
 H         -5.5549237501       -0.1674201018        0.7121638001
 C         -3.8357383004        0.8188099788        1.5767957000
 H         -3.5692024308        1.8627852389        1.7621982700
 H         -3.5972487501        0.2521650688        2.4814072000
 H         -5.0638461305        0.2239215684       -1.5449067399
 H         -5.2814816510        1.5097367883       -2.7137495299
 H         -3.7590974413        2.6625517689       -0.5775348100
 H         -3.1726453813        2.2230601391       -2.1892372000
 O         -1.9843556205        0.2371123095       -1.6551587202
 C         -1.1436404601       -0.8292165802       -1.3694617903
 O         -0.4116066200       -1.1458677999       -2.3290637103
 H          1.5573090302       -1.5599212692       -1.3652968805
 C          1.8807949003       -1.5256417391       -0.3360351906
 C          1.0492191806       -2.0225466094        0.6576218195
 C          1.4697574606       -1.9371028193        1.9797957795
 C          2.6907413505       -1.3671172588        2.2973293194
 C          3.5075551702       -0.8540558185        1.3056614293
 C          3.0898554801       -0.9285848187       -0.0166760707
 N          3.8774036198       -0.3348072983       -1.0268990407
 S          4.1711731592        1.2991668518       -0.7834729007
 O          4.2805937689        1.8839630118       -2.1013069107
 O          5.3280227692        1.4481045322        0.0643458192
 C          2.7261929691        1.9127217212        0.0699460794
 C          1.5028509690        1.8376586608       -0.5662661905
 C          0.3706730089        2.2657776504        0.1070620297
 C          0.4770355189        2.7528765704        1.4003229097
 C          1.7126534889        2.8262284408        2.0237357096
 C          2.8490870390        2.4012648612        1.3547309494
 H          3.8284955290        2.4358575616        1.8031495294
 H          1.7918162788        3.2073522108        3.0289181096
 H         -0.4107080112        3.0735605400        1.9221283597
 H         -0.5915264111        2.2053745000       -0.3766541003
 H          1.4391322991        1.4468382108       -1.5701937605
 H          3.4933659398       -0.4794182685       -1.9507562607
 H          4.4497972100       -0.3817179482        1.5321837492
 H          3.0040688605       -1.3096992588        3.3283100393
 H          0.8199938608       -2.3006337895        2.7622221395
 C         -0.3178752493       -2.5596964299        0.3098436696
 H         -0.7657798491       -2.9589609001        1.2291385296
 C         -0.2543574690       -3.6719715099       -0.7163945904
 C          0.2192544016       -5.0268880897       -0.2860505305
 C         -1.2242438785       -4.8101218402       -0.6249898804
 H         -1.6101233285       -5.2317864503       -1.5410262903
 H         -1.9409320785       -4.7939872405        0.1831116497
 H          0.4814199817       -5.1573593396        0.7529145295
 H          0.8281101917       -5.6001316595       -0.9681924806
 H          0.0176506708       -3.3363366697       -1.7083747804
 O         -2.1566268896       -1.3748795206        2.0585385698
