  62
        -98.94520866
 C         -2.2535250071       -0.7546511320       -0.0146503064
 C         -3.2461982167       -0.6441471087        0.9921222900
 C         -4.0925604865        0.5516798190        0.9337993174
 C         -3.8658154749        1.4826850488       -0.0105732872
 C         -4.6198738035        2.7737053135       -0.1799388559
 C         -5.9245660597        2.6356960586       -0.9767610204
 C         -7.0666250112        1.9356286208       -0.2390578317
 H         -7.2133195848        2.4085425744        0.7324368510
 H         -7.9739856456        2.1022175968       -0.8229467657
 C         -6.8688976006        0.4245968464       -0.0543460630
 H         -6.0949961361        0.0722900750       -0.7401766118
 H         -7.7912938920       -0.0980714281       -0.3171442476
 C         -6.4985607461        0.0029270433        1.3675839253
 H         -6.3472081604       -1.0793727934        1.3753525299
 H         -7.3241255673        0.2326142712        2.0447069687
 C         -5.2244322706        0.6634331185        1.9102573887
 H         -5.4158757833        1.7085410311        2.1523840946
 H         -4.9281160531        0.1405572561        2.8227673368
 H         -6.2533951210        3.6439828070       -1.2388341700
 H         -5.7107537014        2.1041238086       -1.9069426331
 H         -4.8334652928        3.2039786862        0.7989736592
 H         -3.9555855066        3.4520202184       -0.7199994232
 O         -2.8787820129        1.3588489088       -0.9367951386
 C         -2.0611532333        0.2377037866       -0.9758780269
 O         -1.2273825324        0.2557994248       -1.9028620642
 O         -3.4146294198       -1.5047181367        1.8959070747
 C         -1.3520583216       -1.9788616220        0.0065510271
 C          0.0315154339       -1.5288631182        0.4040096643
 C          0.3222856995       -1.3366929333        1.7520902057
 C          1.5548951037       -0.8516829790        2.1457961922
 C          2.5199443516       -0.5370793992        1.2043154167
 C          2.2330487273       -0.7086951602       -0.1425339308
 C          1.0029770483       -1.2202454231       -0.5350032837
 H          0.7900048432       -1.3358128400       -1.5858627803
 N          3.2008836007       -0.3768249306       -1.1071857251
 S          3.9654877988        1.1121343753       -0.9720578022
 O          3.1336429568        2.0899043945       -0.3089526651
 O          4.4005179081        1.4381771048       -2.3130678467
 C          5.3996239050        0.7542991572        0.0236305971
 C          5.6686235566        1.5170853895        1.1431070084
 C          6.7959714925        1.2282737532        1.8965931916
 C          7.6306255176        0.1879146037        1.5185043599
 C          7.3480581122       -0.5671015682        0.3898172793
 C          6.2235940394       -0.2827677129       -0.3683026930
 H          5.9697586284       -0.8431749759       -1.2524033372
 H          7.9992757029       -1.3755833894        0.0991916526
 H          8.5063525348       -0.0356646450        2.1070507979
 H          7.0168409171        1.8148178161        2.7739103797
 H          4.9870973265        2.3118626914        1.4021684475
 H          2.8819822042       -0.5211949830       -2.0549972844
 H          3.4784783071       -0.1448655557        1.5024822732
 H          1.7672683666       -0.7118326868        3.1948353353
 H         -0.4398326037       -1.5586482633        2.4860243858
 H         -1.7480648396       -2.6148534691        0.8096118533
 C         -1.4001941232       -2.7511905205       -1.2946993612
 C         -0.8588788768       -4.1480992021       -1.3368497212
 C         -2.3364644379       -3.9140095580       -1.4206856476
 H         -2.8326945121       -4.0743375352       -2.3661960034
 H         -2.9434875532       -4.1618213435       -0.5623542647
 H         -0.3383734313       -4.4733934130       -2.2245593768
 H         -0.4610704750       -4.5535955132       -0.4190619650
 H         -1.2688475614       -2.1281975761       -2.1711000008
