  62
        -98.93368110
 C          2.1810920165        0.8235438848        0.6264454919
 C          2.6059958635        0.2800610799       -0.6070610161
 C          3.2226184727       -1.0622852642       -0.5647315085
 C          3.3206010167       -1.6945761074        0.6195433567
 C          3.9418514293       -3.0342570850        0.9135272813
 C          5.4782496707       -2.9869027618        0.9126404723
 C          6.0963616495       -2.2059062635       -0.2439589055
 H          5.7210976775       -1.1810985652       -0.2256299860
 H          7.1751023252       -2.1588222388       -0.0731588177
 C          5.8687476228       -2.8054588326       -1.6296002175
 H          6.4400475913       -2.2032927905       -2.3406551968
 H          6.2747257199       -3.8192063496       -1.6525551605
 C          4.4160258653       -2.8522225562       -2.1084592219
 H          3.8759267084       -3.6740445589       -1.6461403893
 H          4.4341640939       -3.0590008500       -3.1824915156
 C          3.6442906873       -1.5483382310       -1.9305066981
 H          4.2166773217       -0.7284674657       -2.3790879727
 H          2.7197738671       -1.6059920573       -2.5179225364
 H          5.8020118953       -2.5146512525        1.8434159237
 H          5.8543564120       -4.0113008686        0.9057495848
 H          3.6040236556       -3.3243902500        1.9109271011
 H          3.5771877034       -3.7777041170        0.2110719044
 O          2.8684642221       -1.1393989834        1.7819163894
 C          2.2900499929        0.1132849803        1.8200649680
 O          1.9089079649        0.4750353718        2.9532724878
 H         -0.4391824195        0.4431408228        0.7829094912
 C         -0.6455573302        1.2002275711        0.0347628152
 C          0.2878765797        2.2092572820       -0.1719225238
 C          0.0075141042        3.1835440903       -1.1195569543
 C         -1.1665727582        3.1297212450       -1.8517363969
 C         -2.0830928231        2.1135169392       -1.6567551787
 C         -1.8196993876        1.1409680813       -0.6999432733
 N         -2.7378546735        0.0852435642       -0.4954828082
 S         -4.3154084050        0.5261437869       -0.0721978326
 O         -4.9232673518        1.1943681743       -1.1937615815
 O         -4.3120957099        1.2590772549        1.1762579809
 C         -5.0609145728       -1.0757941858        0.1527141692
 C         -5.2666961618       -1.5606943316        1.4297540447
 C         -5.8320351138       -2.8166878456        1.5865583789
 C         -6.1760685537       -3.5627539194        0.4695774780
 C         -5.9621945982       -3.0622606881       -0.8063908337
 C         -5.3994034394       -1.8067528253       -0.9700919446
 H         -5.2234388967       -1.3742405089       -1.9409366278
 H         -6.2327483184       -3.6452336266       -1.6719344885
 H         -6.6159163560       -4.5395655645        0.5947921226
 H         -6.0016139828       -3.2067794069        2.5772821547
 H         -4.9900007214       -0.9430928616        2.2694375121
 H         -2.3923466329       -0.5607434087        0.2033949976
 H         -3.0013004355        2.0691245042       -2.2186080563
 H         -1.3691672653        3.8904666853       -2.5905332446
 H          0.7092338098        3.9830119889       -1.2909526000
 C          1.5406696923        2.1988655226        0.6716769744
 H          1.2415556652        2.3595051791        1.7184008597
 C          2.5457270025        3.2629437704        0.2844887881
 C          2.4065893537        4.6577382286        0.8138522829
 C          3.4996733518        3.7683162238        1.3231788476
 H          4.5171019081        3.9797457673        1.0303799869
 H          3.4081366179        3.3617473231        2.3201980599
 H          2.6764450286        5.4829131810        0.1722212676
 H          1.5732226953        4.8627712295        1.4689797045
 H          2.9252331813        3.1303195529       -0.7219426629
 O          2.4858197273        0.8836632933       -1.7049531724
