  62
        -98.93649984
 C         -1.8002590285       -1.3941012577        0.1396414957
 C         -1.8836597586       -0.1235341019       -0.4786964367
 C         -3.2409153746        0.4207417857       -0.6498825645
 C         -4.2973190526       -0.3045041574       -0.2399530308
 C         -5.7300299314        0.1464162711       -0.2728654426
 C         -6.0016658518        1.1221459041        0.8900489125
 C         -6.3392480953        2.5474759179        0.4518714787
 H         -7.3664992413        2.5711422239        0.0820376584
 H         -6.2947514493        3.1816699852        1.3399623798
 C         -5.4369336899        3.1440986859       -0.6326352260
 H         -5.7383955858        2.7648938144       -1.6102468569
 H         -5.6245502383        4.2199360827       -0.6452815069
 C         -3.9310445826        2.9088957072       -0.4573950722
 H         -3.6883376417        2.7324874084        0.5909014140
 H         -3.4086068324        3.8208982966       -0.7536952709
 C         -3.3568315411        1.7649265906       -1.3138599721
 H         -3.9398038181        1.6702244661       -2.2341322220
 H         -2.3327729585        2.0249069159       -1.5976295241
 H         -6.8278087240        0.7462241504        1.4955890801
 H         -5.1216585747        1.1384823122        1.5367330789
 H         -5.9455030499        0.6198633879       -1.2281159057
 H         -6.3530696245       -0.7428974344       -0.1752519217
 O         -4.1755325732       -1.5289902323        0.3367553326
 C         -2.9311674865       -2.1012099831        0.5451608865
 O         -2.9630111613       -3.2222087832        1.0929182679
 O         -0.8797940006        0.5257646525       -0.8674702969
 C         -0.4478153423       -2.0426829411        0.3634275189
 C          0.4583314880       -1.1634882729        1.1919298396
 C         -0.0710596451       -0.3498413507        2.1888356913
 C          0.7434254159        0.4751525260        2.9418021842
 C          2.1111452984        0.4955180157        2.7317235111
 C          2.6541193652       -0.3336324439        1.7616298767
 C          1.8328454012       -1.1553501443        0.9994968199
 H          2.2741235144       -1.7877782280        0.2442204030
 N          4.0528188217       -0.3104742117        1.5505213744
 S          4.6355838401        1.0355219122        0.7359914521
 O          6.0674702883        0.8583338515        0.6509744296
 O          4.1722780242        2.2195310219        1.4110506461
 C          3.9132230622        0.9026502741       -0.8889605354
 C          4.6751613046        0.3931948422       -1.9227844275
 C          4.0809198799        0.1952795516       -3.1582901238
 C          2.7360123322        0.4880495754       -3.3322966201
 C          1.9838244027        0.9947549121       -2.2838712872
 C          2.5767577887        1.2087424391       -1.0494546735
 H          2.0078959868        1.5999589725       -0.2217133459
 H          0.9309831772        1.1994878860       -2.3953732402
 H          2.2688650787        0.3186417336       -4.2900488929
 H          4.6627910464       -0.1951880520       -3.9778633757
 H          5.7139230127        0.1699146924       -1.7392800137
 H          4.3976465410       -1.1409726770        1.0876964983
 H          2.7592603006        1.1488619435        3.2922734456
 H          0.3092107086        1.1095090048        3.7000556301
 H         -1.1388830304       -0.3606441340        2.3606456035
 H         -0.6441950433       -2.9632719639        0.9333818826
 C          0.1673682510       -2.4168270314       -0.9722159376
 C          0.9905725240       -3.6610135180       -1.1155497251
 C         -0.3815233423       -3.5966475353       -1.7143466668
 H         -0.4767327170       -3.5337432076       -2.7877425100
 H         -1.1754335648       -4.1537347470       -1.2377409917
 H          1.8389991947       -3.6437927628       -1.7835218146
 H          1.1280201808       -4.2775717641       -0.2396960714
 H          0.4509309718       -1.5467954511       -1.5536112870
