  62
        -98.93481076
 C         -2.0957627302       -1.1611833898        0.5159747797
 C         -1.9524519999       -0.2131771698       -0.5260096503
 C         -2.7168072200        1.0423094102       -0.3790044305
 C         -3.4437382704        1.2448860002        0.7323078792
 C         -4.3262757406        2.4182770901        1.0583299889
 C         -5.7764164204        2.1509941900        0.6198286785
 C         -6.0954209800        2.5389331800       -0.8233182716
 H         -7.1065536199        2.1860636299       -1.0385338020
 H         -6.1025347300        3.6275266700       -0.9085097517
 C         -5.1419103896        1.9718187100       -1.8778736313
 H         -4.9245277096        0.9262344501       -1.6525850512
 H         -5.6550797193        1.9952775700       -2.8409948115
 C         -3.8302843896        2.7628716201       -1.9942934909
 H         -3.9288169698        3.7028315801       -1.4517384310
 H         -3.6572020893        3.0265112501       -3.0397485209
 C         -2.5762064997        2.0184142702       -1.5151903305
 H         -2.1663008794        1.4266954402       -2.3401026504
 H         -1.8021774898        2.7470224802       -1.2483563103
 H         -5.9811728404        1.0877860300        0.7698442584
 H         -6.4478501506        2.7082291400        1.2761472182
 H         -4.3054995509        2.5277444601        2.1448519589
 H         -3.9390536005        3.3281058101        0.6093059790
 O         -3.5044412207        0.3304624302        1.7410048492
 C         -2.8329302806       -0.8752524098        1.6665020095
 O         -2.9586042809       -1.5946887598        2.6788994494
 H          0.3420091694       -1.0029854596        1.8662044605
 C          0.8265885797       -1.4259410096        0.9926881606
 C          0.0904815600       -2.2463684896        0.1456739504
 C          0.7165208804       -2.7702570496       -0.9766118994
 C          2.0416479004       -2.4706263096       -1.2414866989
 C          2.7683236101       -1.6502527895       -0.3978419987
 C          2.1504596197       -1.1196462395        0.7270716911
 N          2.8883485194       -0.2740344195        1.5901431613
 S          3.2314957595        1.2540601405        0.9648075914
 O          3.5575730391        2.0671168606        2.1174716015
 O          2.1579859998        1.7403265405        0.1268573510
 C          4.6996057699        0.9890146906       -0.0037233181
 C          5.8675201197        0.6624777107        0.6577072422
 C          7.0161458399        0.4409899607       -0.0851740174
 C          6.9768158304        0.5504432307       -1.4674614374
 C          5.7963924805        0.8817450306       -2.1154860078
 C          4.6432994103        1.1041322906       -1.3786852882
 H          3.7003253104        1.3567840105       -1.8370113585
 H          5.7673254909        0.9657787306       -3.1899570478
 H          7.8716512206        0.3764671308       -2.0439521171
 H          7.9360533198        0.1837400608        0.4145730829
 H          5.8521755393        0.5943958307        1.7326434022
 H          2.4373703091       -0.1508349095        2.4870386311
 H          3.8012291002       -1.4189271795       -0.6004721384
 H          2.5146612508       -2.8794609495       -2.1211821488
 H          0.1577799006       -3.3897112197       -1.6586273895
 C         -1.3560695901       -2.4893286897        0.4983701600
 H         -1.3897534804       -2.8413349097        1.5431452499
 C         -2.0156708798       -3.5727862298       -0.3404419202
 C         -3.5042524397       -3.6053478898       -0.5143892607
 C         -2.6193480594       -3.3046868998       -1.6847240804
 H         -2.5136051791       -4.0592843898       -2.4504941904
 H         -2.5803841093       -2.2945736198       -2.0591207604
 H         -4.0740723599       -2.7961449599       -0.0802798809
 H         -4.0053845997       -4.5608685799       -0.4762129409
 H         -1.5277608098       -4.5336944897       -0.2085595901
 O         -1.2356924596       -0.3950543697       -1.5429418000
