  62
        -98.94518493
 C         -1.7169659595       -0.8167014206        0.2089403804
 C         -2.8022739797       -0.5506864308        1.0774682902
 C         -3.5609133703        0.6777158587        0.8062316597
 C         -3.1753712007        1.4790827185       -0.2036808005
 C         -3.8924041613        2.7272082580       -0.6281365510
 C         -4.9411064011        2.4238118970       -1.7076746010
 C         -5.8629796105        1.2538591566       -1.3634278606
 H         -6.5781207404        1.1520206960       -2.1825200506
 H         -5.2755832500        0.3332798670       -1.3335191003
 C         -6.6228173607        1.4120314267       -0.0389813907
 H         -7.6646893705        1.1251865261       -0.1962905207
 H         -6.6184393512        2.4584540168        0.2685856089
 C         -6.0908719603        0.5462301074        1.1045480896
 H         -6.0080270297       -0.4912428927        0.7707263500
 H         -6.8210574303        0.5703956573        1.9178931896
 C         -4.7392556305        0.9732005084        1.6907156695
 H         -4.7700617611        2.0329175484        1.9530073292
 H         -4.5778360603        0.3976234088        2.6071936898
 H         -5.5373726816        3.3233499466       -1.8713639913
 H         -4.4208324609        2.1869134170       -2.6385584709
 H         -4.3692306516        3.1796943380        0.2393586688
 H         -3.1586785817        3.4264682582       -1.0330889313
 O         -2.1016657005        1.2138398588       -0.9904556404
 C         -1.3548348299        0.0530756493       -0.8205309299
 O         -0.4120018498       -0.0685298805       -1.6222387598
 O         -3.1207470193       -1.3056340207        2.0364341405
 C         -0.9310017488       -2.0980770001        0.4010410709
 C          0.5398062410       -1.8534410192        0.6390748109
 C          1.4973102316       -2.8163606888        0.3370817413
 C          2.8384816514       -2.5814079380        0.5833987013
 C          3.2606509708       -1.3760841776        1.1135102308
 C          2.3146201702       -0.4012193580        1.4018935904
 C          0.9674591204       -0.6531989888        1.1879738205
 H          0.2395207999        0.1102927909        1.4332073401
 N          2.7363752195        0.8490632224        1.8842078100
 S          4.0626774692        1.5517593629        1.1377773998
 O          5.2673733194        1.1036966738        1.7936006501
 O          3.8181191184        2.9770682028        1.1953506793
 C          4.0641329096        0.9767403023       -0.5531601300
 C          2.9013526396        1.0544361214       -1.2927216401
 C          2.9009159999        0.5814462509       -2.5946301899
 C          4.0619411302        0.0544805713       -3.1385134296
 C          5.2267693202       -0.0028309678       -2.3886144995
 C          5.2289100899        0.4562686527       -1.0815874097
 H          6.1060945299        0.4138936534       -0.4563741596
 H          6.1289077405       -0.4119946174       -2.8141336193
 H          4.0555022105       -0.3160563390       -4.1514271995
 H          1.9814893499        0.6108664202       -3.1570593099
 H          1.9998205094        1.4569398211       -0.8588839003
 H          1.9884402892        1.5185039021        1.9907406497
 H          4.3015882806       -1.1719481169        1.3062915008
 H          3.5665867319       -3.3430750177        0.3515338116
 H          1.1889963321       -3.7553239691       -0.0924885684
 H         -1.3484114086       -2.5609266000        1.3087813010
 C         -1.1753509982       -3.0287720606       -0.7731883288
 C         -1.3085037175       -4.5074566306       -0.5688409083
 C         -2.5156331379       -3.6863252714       -0.9048502186
 H         -2.9521319878       -3.7799698620       -1.8879574986
 H         -3.2376933380       -3.4959593015       -0.1238050888
 H         -0.9151940371       -5.1695737907       -1.3254996780
 H         -1.2241649673       -4.8856022302        0.4389471819
 H         -0.7001492384       -2.6780541107       -1.6824484389
