  62
        -98.94314350
 C          2.5175169405        1.1590736106       -0.0588451107
 C          3.5525529604        0.6882565004        0.7901973993
 C          4.4770304005       -0.2914488995        0.2073631692
 C          4.3063392706       -0.6745631693       -1.0709751209
 C          5.1319888507       -1.7122699591       -1.7732816109
 C          4.5135718707       -3.1092376192       -1.6207650913
 C          4.1396454305       -3.4669457894       -0.1822152514
 H          3.3324442405       -2.8102021495        0.1507605986
 H          3.7412612205       -4.4837698994       -0.1938248916
 C          5.3034283804       -3.3856028596        0.8155489488
 H          6.2529380305       -3.3966181095        0.2791250589
 H          5.2806543203       -4.2723956497        1.4524090986
 C          5.2601229303       -2.1701582898        1.7435790390
 H          4.2755514802       -2.1025827399        2.2132768289
 H          5.9929577902       -2.3241416599        2.5400866791
 C          5.5742835604       -0.8194516197        1.0879381493
 H          5.6982434503       -0.0828532198        1.8870675094
 H          6.5132198704       -0.8878108296        0.5349883594
 H          5.2219242008       -3.8439447391       -2.0079012013
 H          3.6082931208       -3.1552675890       -2.2305485014
 H          5.1757760209       -1.4577162389       -2.8335679609
 H          6.1409394907       -1.7031303092       -1.3655901808
 O          3.3175824908       -0.1872327091       -1.8608846309
 C          2.3899882807        0.7254671008       -1.3784487308
 O          1.5356321908        1.0609548410       -2.2218367209
 H         -0.5870105793        1.7373393708       -1.1648923911
 C         -0.7520220595        1.2946581706       -0.1948820412
 C          0.2200337904        1.4132715504        0.7872333590
 C         -0.0024886098        0.8078703502        2.0204754289
 C         -1.1668839698        0.1018057401        2.2600824586
 C         -2.1289960397       -0.0245502397        1.2734014784
 C         -1.9147924595        0.5713272606        0.0377622486
 N         -2.8669160594        0.4177478908       -0.9823240316
 S         -4.4861023994        0.6757587007       -0.6409245818
 O         -5.0950409492        1.0035214909       -1.9114725218
 O         -4.6572333195        1.6404196205        0.4209097184
 C         -5.0722640195       -0.9210289794       -0.1132807121
 C         -4.8708017894       -1.9983550492       -0.9536718423
 C         -5.3265345494       -3.2469756393       -0.5620729426
 C         -5.9750469796       -3.3961082495        0.6549488373
 C         -6.1733517097       -2.3039747497        1.4856193074
 C         -5.7190581296       -1.0522830296        1.0999668877
 H         -5.8458715897       -0.1760066897        1.7156659679
 H         -6.6785557698       -2.4218346899        2.4307866074
 H         -6.3278747196       -4.3694737196        0.9572536770
 H         -5.1738030594       -4.0985554692       -1.2055052228
 H         -4.3643113392       -1.8405157491       -1.8914291722
 H         -2.5980772592        0.8419282309       -1.8578947915
 H         -3.0365449497       -0.5778370797        1.4513090482
 H         -1.3265749199       -0.3593410400        3.2228662185
 H          0.7555927001        0.8894236600        2.7866291590
 C          1.5191164204        2.1397985104        0.5354814193
 H          1.9400903403        2.4213243803        1.5100437194
 C          1.3543627406        3.3941085106       -0.2971411005
 C          0.6794456905        4.5857864205        0.3112950297
 C          2.1544194205        4.6127185005        0.0480942099
 H          2.5243693206        5.2303132007       -0.7565897700
 H          2.8247883404        4.5488896104        0.8926377099
 H          0.3474015704        4.5007564003        1.3350970996
 H          0.0329349906        5.1865279106       -0.3102128203
 H          1.1846511007        3.2002584508       -1.3485952405
 O          3.6956475102        1.0724857702        1.9813744194
