  62
        -98.93926766
 C          2.5529988381        0.2977086910        0.0557503247
 C          2.1938130933        1.3030321950       -0.8703401419
 C          1.5366245436        2.5004424231       -0.3228784554
 C          1.3288369494        2.5876177504        1.0024858288
 C          0.7319716129        3.7248775874        1.7954186186
 C         -0.4841653369        4.4509776173        1.2099681295
 C         -1.4732104141        3.5525512615        0.4531007397
 H         -1.2467210717        2.4993579048        0.6322650527
 H         -2.4807776972        3.7343765154        0.8332132182
 C         -1.4874887255        3.8170812273       -1.0540000701
 H         -1.4780666723        4.8965319102       -1.2252504679
 H         -2.4186530869        3.4223583578       -1.4683270825
 C         -0.3446434960        3.1743285272       -1.8376825961
 H         -0.4296790008        3.4919797447       -2.8804685223
 H         -0.4657094441        2.0863573717       -1.8258127363
 C          1.0710884852        3.5071659288       -1.3353032671
 H          1.7584222447        3.4205994966       -2.1816998041
 H          1.1225186639        4.5228537070       -0.9498667416
 H         -0.1507589433        5.2501988523        0.5492281913
 H         -0.9952198188        4.9279733927        2.0483157353
 H          1.5253822663        4.4544609952        1.9862130636
 H          0.4617075056        3.2830356575        2.7576380455
 O          1.7148355835        1.6039355122        1.8635477326
 C          2.2769585776        0.4214272784        1.4161854104
 O          2.5008179594       -0.4137147061        2.3144762984
 O          2.4188202307        1.2057627293       -2.1092612987
 C          3.1031544162       -1.0182993089       -0.4629312055
 C          2.0903277632       -2.1104207704       -0.2083298516
 C          2.4230958031       -3.4058226524        0.1628568856
 C          1.4292951386       -4.3472997903        0.3796410436
 C          0.0926674920       -4.0168252535        0.2586854062
 C         -0.2504182374       -2.7187516714       -0.1087264846
 C          0.7464049283       -1.7977855901       -0.3722607175
 H          0.4692295718       -0.8045529761       -0.6934883614
 N         -1.5992540939       -2.3191545737       -0.1632431467
 S         -2.0086405420       -0.7067396362       -0.3660900686
 O         -1.7730566456       -0.2680200531       -1.7262865911
 O         -1.3837329268        0.0563608122        0.6836191715
 C         -3.7639460525       -0.8114473966       -0.0748178964
 C         -4.6413826852       -0.7776270297       -1.1413906223
 C         -6.0012876704       -0.8887481808       -0.8958611892
 C         -6.4578382715       -1.0332733210        0.4052940910
 C         -5.5651517556       -1.0628566310        1.4667752944
 C         -4.2049528104       -0.9511327273        1.2274422443
 H         -3.4737013565       -0.9596421693        2.0192412659
 H         -5.9233740813       -1.1717865144        2.4777727063
 H         -7.5161069141       -1.1200862403        0.5943689839
 H         -6.6973728005       -0.8617649162       -1.7186462677
 H         -4.2397061874       -0.6557392780       -2.1345100279
 H         -2.2261625795       -2.9649475989       -0.6184130158
 H         -0.6793417683       -4.7444687801        0.4525664096
 H          1.7028761915       -5.3525795206        0.6622640928
 H          3.4587241586       -3.6783146563        0.2859104047
 H          3.1961567094       -0.8870176032       -1.5525336797
 C          4.4703562729       -1.3179483668        0.1129701363
 C          5.4721656198       -2.0990668586       -0.6827371411
 C          5.6673628949       -0.6291915846       -0.4687766688
 H          6.4484525204       -0.3011144446        0.2002277184
 H          5.4974317319        0.0373425722       -1.3019106162
 H          6.1253264371       -2.7816918441       -0.1604803711
 H          5.1797213359       -2.4309193482       -1.6676047129
 H          4.4448879423       -1.4565857933        1.1877208220
