  62
        -98.93817807
 C         -2.8539561600       -0.6513281900       -0.1195018100
 C         -2.3926986702        0.2472382704       -1.1130860297
 C         -2.6148171897        1.6763242103       -0.8416593688
 C         -3.2400740591        2.0500602799        0.2881878817
 C         -3.4995007086        3.4685482697        0.7031747526
 C         -2.3647245381        4.0129759689        1.5809444325
 C         -0.9680610384        3.7908806388        0.9995759918
 H         -0.7366096587        2.7222713488        0.9976806111
 H         -0.2539573780        4.2633239982        1.6781523118
 C         -0.7716336688        4.3481319796       -0.4169059680
 H          0.1910787013        4.8616016293       -0.4562557680
 H         -1.5451207087        5.0852230199       -0.6379266072
 C         -0.7496461595        3.2822979502       -1.5142420486
 H         -0.0556159796        2.4876717399       -1.2260592793
 H         -0.3617726298        3.7429457006       -2.4271750485
 C         -2.1070655698        2.6559632008       -1.8617080884
 H         -1.9843195104        2.0874241213       -2.7882392388
 H         -2.8413689397        3.4452391611       -2.0375425876
 H         -2.4113497478        3.5196036283        2.5546071622
 H         -2.5296668377        5.0814432088        1.7325144932
 H         -4.4297032883        3.4925331296        1.2736466830
 H         -3.6129875388        4.0856088602       -0.1859806769
 O         -3.6854788190        1.1600162094        1.2118333814
 C         -3.4771720994       -0.1972634305        1.0468106105
 O         -3.9017148392       -0.8969172210        1.9883433803
 O         -1.8280836707       -0.1036106291       -2.1830604101
 C         -2.6449794905       -2.1586202200       -0.1955479110
 C         -1.2727045803       -2.4550683707        0.3535829783
 C         -1.0925661801       -3.1966775914        1.5141416678
 C          0.1718980701       -3.3640307421        2.0545995372
 C          1.2774330200       -2.7866185121        1.4557823571
 C          1.1045474398       -2.0492211513        0.2929621376
 C         -0.1561869304       -1.8990652507       -0.2577068618
 H         -0.2840697306       -1.3141218901       -1.1573267614
 N          2.2266563097       -1.4032592613       -0.2944249825
 S          2.5664415904        0.0758092782        0.4641229982
 O          2.4572624209       -0.1046950626        1.8897151382
 O          1.7565652804        1.1240300487       -0.1189989408
 C          4.2744528703        0.3013044180        0.0083429177
 C          5.2412938804       -0.3582760827        0.7418505069
 C          6.5692985803       -0.2305124129        0.3683934364
 C          6.9057865400        0.5478970477       -0.7292146533
 C          5.9238978199        1.2041188984       -1.4555574525
 C          4.5933517200        1.0798603685       -1.0867629520
 H          3.7983083100        1.5786545490       -1.6176739414
 H          6.1883330997        1.8101926288       -2.3071333323
 H          7.9400520300        0.6453302176       -1.0191096836
 H          7.3356387004       -0.7374018134        0.9323651758
 H          4.9317846906       -0.9451538931        1.5906948767
 H          2.0423342294       -1.1890740307       -1.2676119423
 H          2.2614708502       -2.8803116326        1.8844096766
 H          0.2938669203       -3.9380597227        2.9606518068
 H         -1.9555143000       -3.6185743215        2.0088050279
 H         -3.3843628803       -2.5880207202        0.4970006991
 C         -2.9025086812       -2.7351847792       -1.5818599012
 C         -1.9145287917       -3.6029626590       -2.2999105221
 C         -3.1620120517       -4.2051751190       -1.7331166019
 H         -3.9397515920       -4.5270762784       -2.4088467218
 H         -3.0639353415       -4.8170639395       -0.8488490223
 H         -1.8325415221       -3.4880577784       -3.3701775421
 H         -0.9779233416       -3.8243016995       -1.8118671226
 H         -3.4953435213       -2.0738718786       -2.2029920906
