  62
        -98.94011971
 C          2.0363628100        0.6212868209        0.9842905300
 C          2.8614354499        1.1552471607       -0.0367613402
 C          4.2618557700        0.6986676308       -0.0305409002
 C          4.6763706500       -0.1708628390        0.9072014700
 C          6.0552756701       -0.7576933990        0.9868228600
 C          6.1447892101       -2.0766382391        0.2065288903
 C          5.5765552300       -1.9965847295       -1.2104558196
 H          5.7228907800       -2.9744037096       -1.6746304994
 H          4.4986688400       -1.8274654795       -1.1532757796
 C          6.2142259499       -0.9122560297       -2.0903519699
 H          7.1696159999       -0.6039152895       -1.6641097801
 H          6.4211112798       -1.3377701699       -3.0746461298
 C          5.3369044698        0.3209190303       -2.3133338502
 H          5.7834901098        0.9148322901       -3.1152011803
 H          4.3458620198        0.0080136901       -2.6513090000
 C          5.1642557299        1.2449453105       -1.1012519604
 H          6.1430626599        1.4978489107       -0.6889553505
 H          4.6895657798        2.1660114104       -1.4519881506
 H          7.1919339101       -2.3820194491        0.1640294703
 H          5.5898849801       -2.8417272290        0.7546872505
 H          6.7729744100       -0.0408787690        0.5924862898
 H          6.2869908901       -0.9503579587        2.0357764101
 O          3.8579189601       -0.6563506588        1.8759575702
 C          2.5269941901       -0.2827185389        1.9305317401
 O          1.8862989202       -0.8079278087        2.8644038003
 O          2.4723733399        1.9667405405       -0.9139762404
 C          0.5647451600        0.9715344009        1.1319212000
 C         -0.2883158200        0.0529396907        0.2957770602
 C         -0.0258246701       -0.1439358996       -1.0563325397
 C         -0.8226273801       -0.9849955698       -1.8115514495
 C         -1.9008929100       -1.6373973897       -1.2393548493
 C         -2.1769652900       -1.4400849794        0.1065722407
 C         -1.3710749799       -0.6009833092        0.8651139105
 H         -1.5806049999       -0.4661693990        1.9177922504
 N         -3.3013078099       -2.0709560093        0.6780351309
 S         -4.7757429700       -1.6717197895       -0.0201837591
 O         -5.7723222099       -1.9716083493        0.9822469711
 O         -4.9078314400       -2.3614215798       -1.2776999589
 C         -4.6545506200        0.0868807104       -0.2884211295
 C         -4.8525289200        0.9266855306        0.7898193303
 C         -4.6598534401        2.2884214206        0.6234305000
 C         -4.2599267701        2.7831490903       -0.6086039301
 C         -4.0684133002        1.9272440101       -1.6816692799
 C         -4.2669239401        0.5648611701       -1.5239495096
 H         -4.1317892802       -0.1320692401       -2.3343517495
 H         -3.7580010203        2.3153647499       -2.6383916401
 H         -4.0929768102        3.8412122903       -0.7312985204
 H         -4.8118318600        2.9579921308        1.4547622299
 H         -5.1634995799        0.5033120308        1.7317672204
 H         -3.3544642398       -1.9594743591        1.6807554509
 H         -2.5375086301       -2.2903909299       -1.8143956891
 H         -0.6035980502       -1.1330766901       -2.8582070395
 H          0.8040716399        0.3770423603       -1.5085459799
 H          0.3298335801        0.7686093111        2.1886851400
 C          0.2672245400        2.4441452808        0.8765791597
 C         -0.5760739301        2.9348906405       -0.2583352804
 C         -1.1106667700        2.9762172308        1.1392367496
 H         -1.2112808500        3.9309841610        1.6321329594
 H         -1.8764404900        2.2601539709        1.3983101598
 H         -0.2813837402        3.8584761004       -0.7319367106
 H         -0.9923982801        2.2093265404       -0.9391358302
 H          1.0968770800        3.0795615909        1.1672554195
