  62
        -98.94776567
 C         -0.7805334251       -1.2711761859        0.0245834345
 C         -1.4872225658       -0.6091990778        1.0557638305
 C         -2.4040946980        0.4502242161        0.6204393021
 C         -2.4741256646        0.7778202743       -0.6825734937
 C         -3.3756021144        1.8199892316       -1.2862296804
 C         -4.7952528812        1.3124911583       -1.5774404878
 C         -5.6793008093        1.1072628928       -0.3464076385
 H         -5.6702238387        2.0119220882        0.2622704208
 H         -6.7008023919        0.9675676035       -0.7057393922
 C         -5.2937113216       -0.1010889245        0.5185518426
 H         -6.1927556140       -0.6643402919        0.7789661880
 H         -4.6521060245       -0.7724528412       -0.0568930711
 C         -4.5883470944        0.2537962879        1.8278177307
 H         -4.3296731899       -0.6762597162        2.3405583640
 H         -5.2699269930        0.8138717034        2.4720347651
 C         -3.3015667046        1.0704865452        1.6485685667
 H         -3.5478815313        2.0960399983        1.3748005498
 H         -2.7642587034        1.0776980953        2.6003634144
 H         -4.7246823555        0.3758173223       -2.1350048268
 H         -5.2782420898        2.0483200024       -2.2243759522
 H         -2.9170323483        2.1161769598       -2.2314047295
 H         -3.4295564154        2.6890913250       -0.6312527053
 O         -1.7049950676        0.1805744845       -1.6305703951
 C         -0.8721813242       -0.8815057982       -1.3116294227
 O         -0.2766802206       -1.3778383481       -2.2862067011
 O         -1.3679942157       -0.8976167023        2.2778576371
 C          0.1021601549       -2.4534039223        0.3752182599
 C          1.5076318242       -2.2574904763       -0.1349794398
 C          2.2503752498       -3.2739039867       -0.7220432934
 C          3.5417521504       -3.0337747668       -1.1580363658
 C          4.1200611475       -1.7873784816       -1.0103079864
 C          3.3870693657       -0.7639210826       -0.4181214691
 C          2.0943706400       -1.0073657369        0.0150457486
 H          1.5293111333       -0.2133571705        0.4810237394
 N          3.9329591909        0.5175127581       -0.2875309684
 S          3.3961231504        1.6086047842        0.8472845239
 O          4.4198109444        2.6326863635        0.8594907063
 O          3.1236264681        0.9805820805        2.1191827341
 C          1.9121376769        2.3011471600        0.1522276719
 C          0.8031117246        2.4802536786        0.9537521482
 C         -0.3176428619        3.0956390807        0.4202321672
 C         -0.3108377966        3.5151545944       -0.9004843787
 C          0.8059729147        3.3152937408       -1.6968733145
 C          1.9321495097        2.7076073374       -1.1669383474
 H          2.8211113891        2.5445376692       -1.7532800520
 H          0.8030214676        3.6342322813       -2.7267741646
 H         -1.1808907194        4.0018438314       -1.3112996588
 H         -1.1865858993        3.2434778861        1.0407212869
 H          0.8321441520        2.1286180223        1.9737124673
 H          4.9105697648        0.6136962469       -0.5147109968
 H          5.1260373284       -1.6005863890       -1.3533825750
 H          4.1067470594       -3.8301862305       -1.6181716280
 H          1.8178503715       -4.2533857321       -0.8433537093
 H          0.1411283475       -2.4764228329        1.4754538412
 C         -0.5429298441       -3.7347966770       -0.1151986468
 C         -0.3591256780       -5.0179974954        0.6369973953
 C         -1.6817047957       -4.3145828478        0.6672529601
 H         -2.5116315149       -4.7475166153        0.1290665666
 H         -1.9692757791       -3.8018607884        1.5737052359
 H         -0.2832336745       -5.9382479213        0.0775110773
 H          0.2475707247       -4.9919230655        1.5296510630
 H         -0.6065124585       -3.7775348431       -1.1971391123
