  62
        -98.94684303
 C          1.7697993457        1.3666227909       -0.0529116585
 C          2.8907228619        0.6998469056        0.5003431382
 C          3.3126951335       -0.5343025723       -0.1728605403
 C          2.6197992805       -0.9705520638       -1.2400958752
 C          2.9118523178       -2.2336056589       -1.9963152810
 C          2.1026900547       -3.4138877117       -1.4424448998
 C          2.1877645355       -3.5655740210        0.0764113333
 H          1.6177268410       -4.4586671602        0.3441183049
 H          1.6757967122       -2.7206302187        0.5444238745
 C          3.6154301607       -3.6857261760        0.6281601949
 H          4.2980243489       -3.9738468478       -0.1725462244
 H          3.6329161540       -4.4843127442        1.3729722956
 C          4.1439769769       -2.4258929229        1.3166700622
 H          5.0482051177       -2.6944965537        1.8698602007
 H          3.4071724829       -2.0735761131        2.0436531227
 C          4.5033201628       -1.2577103650        0.3898317689
 H          5.1566649384       -1.6102388115       -0.4110202987
 H          5.0514565407       -0.5193035750        0.9826183781
 H          2.4533186487       -4.3293396190       -1.9236866521
 H          1.0514967475       -3.2685191805       -1.7030034922
 H          3.9770208160       -2.4492911169       -1.9352787926
 H          2.6401314544       -2.0787756715       -3.0421302535
 O          1.5418374584       -0.3160762645       -1.7349967401
 C          1.0634080444        0.8378840946       -1.1336143347
 O          0.0299044759        1.2883693622       -1.6642195117
 O          3.5085939984        1.1185436331        1.5174882357
 C          1.2596559794        2.6077105504        0.6596490491
 C         -0.2239015534        2.4699372813        0.8951002873
 C         -1.1654119874        3.4328085984        0.5572450776
 C         -2.5132370327        3.2044911902        0.7799134403
 C         -2.9520292575        2.0058004915        1.3110381320
 C         -2.0160301705        1.0361032074        1.6516606098
 C         -0.6671552977        1.2879443747        1.4767081025
 H          0.0471552828        0.5241121789        1.7495122046
 N         -2.3985622085       -0.2296480277        2.1492929067
 S         -2.1072484575       -1.5225157369        1.1162234862
 O         -2.5776972523       -2.6920519275        1.8285373587
 O         -0.7241269144       -1.5304216665        0.7199603092
 C         -3.1866698892       -1.2068892857       -0.2690586259
 C         -4.4259151821       -1.8193459318       -0.2856988197
 C         -5.3113417119       -1.5183701607       -1.3072410584
 C         -4.9485975351       -0.6032636847       -2.2845746004
 C         -3.7037247406        0.0050994950       -2.2501800085
 C         -2.8086430642       -0.2942942828       -1.2332864114
 H         -1.8332686973        0.1666618472       -1.1940604105
 H         -3.4138018558        0.7177804694       -3.0056084895
 H         -5.6385853047       -0.3629574475       -3.0780918357
 H         -6.2789137198       -1.9930618221       -1.3361342794
 H         -4.6615304916       -2.5241666221        0.4955072956
 H         -3.3620525636       -0.2699474855        2.4548838457
 H         -4.0052321104        1.8150464759        1.4535101173
 H         -3.2333564251        3.9624638054        0.5120561004
 H         -0.8485942416        4.3551320111        0.0988953708
 H          1.7610151711        2.5797503704        1.6425057446
 C          1.6572075943        3.9241661016        0.0095566392
 C          2.8531621306        4.0121462738       -0.8895292731
 C          1.4766919371        4.1790539681       -1.4558990012
 H          1.1705283842        5.1661916800       -1.7700318603
 H          1.0645995155        3.3807140365       -2.0521637802
 H          3.4898843760        4.8807076479       -0.8117138808
 H          3.3867446920        3.0970572700       -1.1031364875
 H          1.4982461632        4.7682796840        0.6736691978
