  62
        -98.93693537
 C         -2.5726426638       -1.0329502362        0.0550989267
 C         -3.1439546200       -0.1576511498        1.0058245977
 C         -3.6255929748        1.1401221083        0.5029636154
 C         -3.4793443068        1.4386480237       -0.8017346834
 C         -3.8996146804        2.6599257133       -1.5923784498
 C         -4.2431482783        3.9689281627       -0.8852402338
 C         -3.0738906933        4.6343703570       -0.1610645016
 H         -2.3494682840        4.9752613035       -0.9052212289
 H         -3.4546194741        5.5149790986        0.3610192893
 C         -2.3267710349        3.7522327378        0.8365473953
 H         -1.8253257834        2.9402698874        0.3039535929
 H         -1.5426073660        4.3598637661        1.2970220573
 C         -3.1818309266        3.1645075688        1.9584733213
 H         -3.7250652390        3.9657942895        2.4625882597
 H         -2.5019550717        2.7124310366        2.6857210871
 C         -4.1874930567        2.0800627994        1.5302377444
 H         -5.1184165457        2.5180185790        1.1786117738
 H         -4.4208089150        1.4713753297        2.4085692923
 H         -5.0760232024        3.8235104977       -0.2037384204
 H         -4.5848416441        4.6589425922       -1.6615126426
 H         -3.0885795410        2.8408056532       -2.3052045619
 H         -4.7673932493        2.3492397513       -2.1848413387
 O         -2.9140942291        0.5612962188       -1.6826697044
 C         -2.4367343101       -0.6773848978       -1.2855866537
 O         -1.9269427532       -1.3490070908       -2.2022579081
 O         -3.2455042469       -0.4445558017        2.2296802876
 C         -2.0258507149       -2.3725694363        0.5144197027
 C         -0.5466630005       -2.4376606784        0.2209418186
 C          0.0718432012       -3.5195333370       -0.3908949188
 C          1.4273251346       -3.4849059206       -0.6706731321
 C          2.1959272638       -2.3833465719       -0.3420335445
 C          1.5900648645       -1.3017417289        0.2835647612
 C          0.2343518100       -1.3421226829        0.5672933480
 H         -0.2352194173       -0.4928850764        1.0500880271
 N          2.3567917384       -0.1733047480        0.6426762601
 S          3.1708126103        0.6856703336       -0.5570781250
 O          2.6445751092        2.0351542069       -0.5694422617
 O          3.1329433936       -0.0313272506       -1.8081731168
 C          4.8499927147        0.7275814488        0.0469325855
 C          5.3626955594       -0.3723500176        0.7055563354
 C          6.6783883614       -0.3397959646        1.1410654954
 C          7.4568605233        0.7842977170        0.9111904082
 C          6.9274877563        1.8818085777        0.2501577091
 C          5.6126375650        1.8550728606       -0.1880109110
 H          5.1582579199        2.6882257710       -0.6994017962
 H          7.5318577835        2.7570695590        0.0741004151
 H          8.4800929001        0.8063414623        1.2513903762
 H          7.0903327998       -1.1909904451        1.6589875669
 H          4.7285603314       -1.2262394521        0.8778322209
 H          1.8310051093        0.4872716606        1.1981501121
 H          3.2426885303       -2.3417262333       -0.5950357148
 H          1.8914097833       -4.3278223933       -1.1598707408
 H         -0.5101320749       -4.3838637149       -0.6655202213
 H         -2.1634364440       -2.3875029407        1.6059665651
 C         -2.8185662631       -3.5098290603       -0.0931568090
 C         -2.9378922528       -4.8179203542        0.6286545500
 C         -4.1197773688       -3.9015517054        0.5383597987
 H         -4.9419070021       -4.1774761640       -0.1046617741
 H         -4.4213488417       -3.3631753506        1.4250358221
 H         -2.9513701630       -5.7276559655        0.0476673388
 H         -2.4403939037       -4.9093905572        1.5821687509
 H         -2.7636649603       -3.5215386517       -1.1760619941
