  62
        -98.94048675
 C         -1.7983046864       -0.8293493980       -0.3783727505
 C         -3.1253377570       -1.3161294308       -0.4931908549
 C         -4.1272758717       -0.6838757992        0.3749000783
 C         -3.7354811001        0.2615930178        1.2480368329
 C         -4.6554488007        1.0278892359        2.1525376648
 C         -5.1455753865        2.3186273048        1.4811729296
 C         -5.6824061538        2.1132724258        0.0645642079
 H         -6.0258620627        3.0848008607       -0.2971958499
 H         -4.8626543700        1.8003490436       -0.5862273520
 C         -6.8269361761        1.0955372829       -0.0393408746
 H         -7.6084007349        1.5110839021       -0.6790576181
 H         -7.2677173459        0.9320316946        0.9447720898
 C         -6.4258984503       -0.2512906214       -0.6442612480
 H         -5.9030224711       -0.0873842044       -1.5900993232
 H         -7.3392332008       -0.8085519551       -0.8689663459
 C         -5.5506921444       -1.1465022286        0.2420205323
 H         -6.0139692833       -1.2568667117        1.2247575306
 H         -5.5021915649       -2.1335775161       -0.2274661960
 H         -5.9244030659        2.7584626601        2.1067438431
 H         -4.3113579662        3.0222665469        1.4327129158
 H         -5.5033242317        0.3989626092        2.4172963957
 H         -4.1087951645        1.2857451848        3.0612477290
 O         -2.4455677967        0.6600310041        1.3737167470
 C         -1.4427784596        0.1338536492        0.5670370481
 O         -0.3142805587        0.6000854750        0.8018084161
 O         -3.4534600529       -2.2418598746       -1.2827493128
 C         -0.7453197498       -1.4487047848       -1.2792123812
 C          0.4834791801       -1.8144868074       -0.4842441245
 C          0.3287711532       -2.5804449928        0.6690638547
 C          1.4165748502       -2.9205079962        1.4486424130
 C          2.6922539651       -2.5232096310        1.0857541697
 C          2.8607651155       -1.7753184593       -0.0697592935
 C          1.7631028835       -1.4256446939       -0.8482369470
 H          1.9170165712       -0.8251354119       -1.7312413701
 N          4.1643266345       -1.3880465090       -0.4496994332
 S          4.9630514319       -0.2601045295        0.4961622600
 O          6.3141360028       -0.2062432198       -0.0156666367
 O          4.8170206403       -0.6244779183        1.8814515420
 C          4.1465910937        1.2909376025        0.1605625186
 C          4.8005373506        2.2448391110       -0.5956282136
 C          4.1453704302        3.4277050052       -0.8962864429
 C          2.8483044981        3.6313611653       -0.4484923071
 C          2.2053575954        2.6619438873        0.3050479107
 C          2.8575444922        1.4794592893        0.6164541523
 H          2.3609516657        0.7152626755        1.1921615622
 H          1.1911793869        2.7946248743        0.6466206390
 H          2.3342887882        4.5489484482       -0.6887999998
 H          4.6438367530        4.1840589805       -1.4812004647
 H          5.8063999361        2.0411806041       -0.9259812499
 H          4.2316566980       -1.1068053475       -1.4183781216
 H          3.5510714994       -2.7651137206        1.6898639237
 H          1.2733798558       -3.5032891799        2.3463785912
 H         -0.6660692523       -2.8936972786        0.9569362233
 H         -1.2087616085       -2.3868381168       -1.6291280422
 C         -0.4374239925       -0.6277714401       -2.5241416651
 C         -1.3927251670        0.4107603750       -3.0292652394
 C         -0.0773908703        0.8254466043       -2.4451792599
 H          0.6819531935        1.2059050966       -3.1131126536
 H         -0.0670687000        1.2801526894       -1.4674017079
 H         -1.5366606596        0.4978540560       -4.0958605992
 H         -2.2881906843        0.5923663051       -2.4527170852
 H          0.0701526400       -1.2148141026       -3.2836814683
