  62
        -98.94203771
 C         -0.5197872217       -1.4909778156        0.0216634915
 C         -1.4161354920       -0.8762524791        0.9234893289
 C         -2.4145722015        0.0387412481        0.3443527339
 C         -2.3826892766        0.2924789238       -0.9772893024
 C         -3.2321101979        1.2112519577       -1.8318878297
 C         -4.5458540829        1.7780095766       -1.2985894121
 C         -5.6475900576        0.7405030942       -1.0816509597
 H         -6.4925527791        1.2355589018       -0.5982840140
 H         -5.9854048795        0.3849624252       -2.0583792761
 C         -5.2514813597       -0.4839622098       -0.2599399828
 H         -6.1221557795       -1.1429082469       -0.2028661819
 H         -4.4659574327       -1.0358159292       -0.7804865917
 C         -4.7935540767       -0.1950274751        1.1683104819
 H         -4.6838400733       -1.1557221832        1.6784466248
 H         -5.5631457445        0.3752351262        1.6919149620
 C         -3.4561662737        0.5551193251        1.2948382183
 H         -3.5980004921        1.6256831988        1.1806162202
 H         -3.0622947569        0.3803296633        2.2999215611
 H         -4.3732271038        2.3439472529       -0.3881049738
 H         -4.9050309354        2.4877894609       -2.0488520287
 H         -2.5799559219        2.0461135403       -2.1132353113
 H         -3.4314618018        0.6582722149       -2.7555263040
 O         -1.4501897447       -0.2744261267       -1.8009941734
 C         -0.5291353534       -1.2020637905       -1.3418119096
 O          0.2007877150       -1.6886654833       -2.2258790679
 H          1.4305623764        0.0081475985        0.5063339387
 C          2.2135065936       -0.7124732105        0.3169578209
 C          1.9006143789       -2.0647910573        0.2790498504
 C          2.9241550756       -2.9739210902        0.0374321176
 C          4.2187901907       -2.5338434365       -0.1739122733
 C          4.5199198190       -1.1843222943       -0.1560745210
 C          3.5053020906       -0.2672557942        0.0889122866
 N          3.7656266154        1.1134984139        0.1377863865
 S          2.7274705324        2.1448853423       -0.6777226600
 O          2.2218162482        1.5490483813       -1.8922708963
 O          3.4945803585        3.3632283009       -0.8470319788
 C          1.3924489886        2.4805096070        0.4486511326
 C          1.6456850221        2.6224495835        1.7985272897
 C          0.5953876104        2.9441340566        2.6432724960
 C         -0.6763018788        3.1381280539        2.1260653903
 C         -0.9101274367        3.0043608321        0.7668949191
 C          0.1315246920        2.6655350327       -0.0807545559
 H         -0.0073711114        2.5258618973       -1.1418652915
 H         -1.8955573034        3.1616323251        0.3601358866
 H         -1.4907388926        3.3926568027        2.7855551942
 H          0.7715106758        3.0445628171        3.7021038359
 H          2.6470421058        2.4692508401        2.1649985695
 H          4.7290677416        1.3653399119       -0.0341383676
 H          5.5276272306       -0.8399919559       -0.3329358584
 H          5.0029200187       -3.2509064589       -0.3640177950
 H          2.7061975616       -4.0290612371        0.0109602679
 C          0.4813022149       -2.4953774090        0.5555321571
 H          0.3376358332       -2.4951307312        1.6473902316
 C          0.1659397941       -3.8809323969        0.0268178706
 C          0.3976546436       -5.0937955099        0.8766232232
 C         -0.9991205379       -4.6242261378        0.6067964914
 H         -1.6234065084       -5.2041272202       -0.0563350603
 H         -1.5416594805       -4.1432991887        1.4076389904
 H          0.7319641213       -6.0021038305        0.3980490729
 H          0.7973031357       -4.9419772872        1.8678527124
 H          0.3295323942       -3.9624330717       -1.0422624140
 O         -1.3892084915       -1.0858724415        2.1663826898
