  62
        -98.93935075
 C         -1.4951819650       -0.7991944687       -0.0171914499
 C         -2.7735994748       -1.3954086930        0.0500645335
 C         -3.8935660992       -0.5126411233        0.4226975604
 C         -3.6529034555        0.7878682592        0.6747646891
 C         -4.5768514824        1.9055758403        1.1126832077
 C         -6.0926469880        1.7434424062        1.0364418760
 C         -6.6562728647        1.6631109057       -0.3819342173
 H         -7.7245390128        1.4460580004       -0.3137784875
 H         -6.5457621730        2.6419664050       -0.8553826554
 C         -5.9971905535        0.6331061344       -1.2959097747
 H         -4.9482476488        0.8950146486       -1.4482181882
 H         -6.4877076244        0.6893204082       -2.2715445160
 C         -6.0816922313       -0.8148493084       -0.8172816033
 H         -5.7179208921       -1.4513133561       -1.6286034992
 H         -7.1237361752       -1.0797035394       -0.6274381827
 C         -5.2545235111       -1.1471345990        0.4366264276
 H         -5.7919145157       -0.8869739623        1.3455270528
 H         -5.0878984911       -2.2283404196        0.4533748425
 H         -6.4103008280        0.8858222036        1.6220880525
 H         -6.5245258436        2.6280328403        1.5125599851
 H         -4.3046924053        2.1243793687        2.1511467996
 H         -4.2816097240        2.7817402175        0.5268818599
 O         -2.3951663608        1.3154015109        0.6059297448
 C         -1.2914573006        0.5515854610        0.2604758827
 O         -0.2176252032        1.1781463431        0.2384914456
 O         -2.9741994843       -2.6195822529       -0.1778857059
 C         -0.2966192880       -1.6460656478       -0.4012200554
 C          0.7603811828       -1.5592352754        0.6709098046
 C          0.3933202169       -1.7506541512        2.0010431076
 C          1.3276444913       -1.6513055921        3.0127282492
 C          2.6469619459       -1.3480018490        2.7233380293
 C          3.0269082862       -1.1714724662        1.3990616981
 C          2.0887665584       -1.2924364084        0.3821818734
 H          2.4165232452       -1.1766690498       -0.6361969732
 N          4.3576185974       -0.8839750409        1.0725021134
 S          4.7518027042       -0.0115630615       -0.2930839982
 O          4.6350533870       -0.8454105078       -1.4637072425
 O          6.0816174799        0.4893549902       -0.0148588898
 C          3.6050868298        1.3502687187       -0.3908281505
 C          2.8990588982        1.5594828487       -1.5567834287
 C          2.0299647572        2.6347695299       -1.6315607142
 C          1.8803564701        3.4768557798       -0.5424996493
 C          2.5985623572        3.2551549486        0.6211965819
 C          3.4716369589        2.1836770014        0.7007082916
 H          4.0465686094        1.9902949242        1.5920234687
 H          2.4736222678        3.9101815544        1.4685478840
 H          1.1933436334        4.3062760704       -0.5990057087
 H          1.4641637504        2.8058387500       -2.5339349704
 H          3.0388140522        0.8751960876       -2.3792329261
 H          4.9622077769       -0.6747746088        1.8522874552
 H          3.3754336724       -1.2546184832        3.5139778963
 H          1.0262817133       -1.7999886531        4.0387906884
 H         -0.6403449157       -1.9715047145        2.2305308764
 H         -0.6652057768       -2.6817037741       -0.4464001238
 C          0.2067986092       -1.2436718146       -1.7715835754
 C          0.9217855473       -2.2353444841       -2.6382351541
 C         -0.4655744241       -1.7928991563       -2.9923782957
 H         -0.6004073678       -1.1433399176       -3.8442298475
 H         -1.2780499341       -2.4885515342       -2.8409652662
 H          1.7487012503       -1.8935612424       -3.2431757396
 H          1.0514998741       -3.2346297651       -2.2506062994
 H          0.5325357728       -0.2092987415       -1.8021307550
