  62
        -98.94114912
 C          2.1294008203        0.8171589099       -0.3555496397
 C          3.0503102402        0.5893673296        0.7018179504
 C          3.5778581602       -0.7735960605        0.8331687601
 C          3.1471054803       -1.7257380502       -0.0137382102
 C          3.6216180103       -3.1493097502       -0.0216380406
 C          4.8195904104       -3.3325248400       -0.9638053804
 C          5.9288329804       -2.3011887900       -0.7572620500
 H          6.7345903105       -2.5466281198       -1.4523067100
 H          5.5529727104       -1.3140478500       -1.0356914098
 C          6.4855292902       -2.2458304504        0.6722445701
 H          6.2188359001       -3.1566821306        1.2094115398
 H          7.5756079102       -2.2062516004        0.6220487002
 C          6.0330383501       -1.0297340706        1.4828175704
 H          6.2109817702       -0.1183911705        0.9065794206
 H          6.6497109000       -0.9730773109        2.3836746505
 C          4.5668256100       -1.0351922708        1.9341657802
 H          4.3395244699       -1.9768318509        2.4385121699
 H          4.4359574499       -0.2212386110        2.6532417604
 H          5.2213373104       -4.3369629800       -0.8189832207
 H          4.4646382805       -3.2529665097       -1.9938570605
 H          3.8935889601       -3.4396805505        0.9914250194
 H          2.7999856603       -3.7821331401       -0.3618243008
 O          2.2515192404       -1.4795611599       -1.0005259803
 C          1.7210149004       -0.2138712899       -1.2016666500
 O          0.9175678106       -0.1662727096       -2.1561331301
 H         -0.7036269096        0.9538555101       -1.1735030900
 C         -0.8445834897        1.5812086699       -0.3055629399
 C          0.2251005603        2.3193889097        0.1811211105
 C          0.0288014901        3.1019291594        1.3126736307
 C         -1.2049794100        3.1395425493        1.9395567405
 C         -2.2652971899        2.3929289094        1.4573620602
 C         -2.0752026698        1.6028808297        0.3318183500
 N         -3.1447959397        0.8078243199       -0.1551917704
 S         -3.5106365598       -0.5149789504        0.8365709792
 O         -3.8265102000       -0.0224928608        2.1529337893
 O         -2.4561958698       -1.5061458604        0.7628040791
 C         -4.9866590497       -1.1276880902        0.0487563888
 C         -4.8996631696       -2.1945177599       -0.8241932615
 C         -6.0515306395       -2.6422302198       -1.4522146017
 C         -7.2625866996       -2.0157573198       -1.2002747217
 C         -7.3332307097       -0.9443349001       -0.3222119215
 C         -6.1857355598       -0.4928543502        0.3095582488
 H         -6.1929679099        0.3296490796        1.0050620791
 H         -8.2771568297       -0.4611383501       -0.1282432214
 H         -8.1569305495       -2.3666159897       -1.6904827620
 H         -5.9987884094       -3.4759163196       -2.1339319720
 H         -3.9377880796       -2.6556405799       -0.9842592815
 H         -2.9118963696        0.4334787801       -1.0679661205
 H         -3.2220936900        2.3914802493        1.9523133400
 H         -1.3406438401        3.7516261490        2.8183567507
 H          0.8584875601        3.6660716293        1.7134770909
 C          1.5800503504        2.2300595399       -0.4804862494
 H          2.2732258503        2.8586283698        0.0946399009
 C          1.5348799206        2.7454118203       -1.9050606692
 C          1.4993714506        4.2248721104       -2.1393998888
 C          2.7341869606        3.4428708005       -2.4701891489
 H          2.9821964808        3.2792172107       -3.5080881289
 H          3.5960018606        3.5540689203       -1.8282848787
 H          0.8967400507        4.6025192406       -2.9508632488
 H          1.5245982305        4.8683179001       -1.2730825986
 H          0.9671381906        2.1139327105       -2.5755596495
 O          3.4175763201        1.4939421094        1.4987138807
