  62
        -98.94291620
 C         -2.6473708466       -1.1875124267        0.2497197450
 C         -2.7723263914       -0.3304450066       -0.8703889320
 C         -3.7849900355        0.7311028021       -0.7592788828
 C         -4.5322838688        0.8261737907        0.3546293409
 C         -5.5513628956        1.8949850032        0.6202344895
 C         -4.9221145710        3.0937109264        1.3441511889
 C         -3.6322925850        3.5990275932        0.6975328390
 H         -3.2970505211        4.4638514362        1.2740667200
 H         -2.8606983617        2.8313380572        0.7927565272
 C         -3.7746455055        3.9935115047       -0.7792054025
 H         -4.8267039086        4.1463616493       -1.0224149594
 H         -3.2636680789        4.9454040546       -0.9383562226
 C         -3.1680705024        2.9927559942       -1.7646441319
 H         -3.1276985962        3.4667139410       -2.7491503916
 H         -2.1405402443        2.7648664656       -1.4691713146
 C         -3.9285532748        1.6701055376       -1.9243196348
 H         -3.5068215937        1.1461473420       -2.7871052549
 H         -4.9816559781        1.8730991060       -2.1284115107
 H         -5.6558493568        3.9011403595        1.3762170921
 H         -4.6964473191        2.7979930721        2.3712646100
 H         -5.9895396069        2.2153535478       -0.3229490485
 H         -6.3359975526        1.4724716641        1.2500507275
 O         -4.4041292426       -0.0286408568        1.4000777414
 C         -3.4621835979       -1.0404268820        1.3785350576
 O         -3.4490446425       -1.7441836246        2.4079106412
 O         -2.0848910409       -0.4208944298       -1.9242280326
 C         -1.6471106543       -2.3318504469        0.3231534369
 C         -0.2571248407       -1.8331089826        0.6420238831
 C          0.3772703141       -2.2038762921        1.8219736699
 C          1.6559422030       -1.7564611746        2.1046408399
 C          2.3252293976       -0.9278479563        1.2218378577
 C          1.6998743761       -0.5504708939        0.0406810462
 C          0.4209352593       -1.0082225860       -0.2440294212
 H         -0.0638185415       -0.7070502538       -1.1609894569
 N          2.3552807920        0.3139079131       -0.8522696161
 S          3.9391723641       -0.0248425817       -1.2867007210
 O          4.1299683820        0.6232735142       -2.5657611802
 O          4.2123354517       -1.4426501266       -1.2379495796
 C          4.9086661441        0.8254879546       -0.0584899293
 C          5.8722026893        0.1403146943        0.6552817251
 C          6.6231258348        0.8264847708        1.5971987421
 C          6.3992468014        2.1785829299        1.8063800337
 C          5.4293052511        2.8528026194        1.0793386437
 C          4.6759655454        2.1729487928        0.1357962202
 H          3.9150330580        2.6601145109       -0.4509892093
 H          5.2576852501        3.9042577840        1.2448800404
 H          6.9838390895        2.7104080659        2.5403781325
 H          7.3777285927        0.3042558465        2.1631308968
 H          6.0073660107       -0.9121076410        0.4626693627
 H          1.7995491490        0.5496508053       -1.6620506150
 H          3.3203886248       -0.5749037991        1.4380296982
 H          2.1362714531       -2.0533339715        3.0245010482
 H         -0.1442026063       -2.8392468717        2.5231886645
 H         -1.9776203122       -2.9554955372        1.1643728745
 C         -1.6366776278       -3.1898227144       -0.9280564393
 C         -1.1167889728       -4.5917671552       -0.8411868678
 C         -2.5829444914       -4.3458654121       -1.0321810802
 H         -3.0244745054       -4.5651610403       -1.9927558339
 H         -3.2435840249       -4.5272795088       -0.1966461932
 H         -0.5465048705       -4.9816991960       -1.6704567723
 H         -0.7834555503       -4.9425658271        0.1238482201
 H         -1.4333408403       -2.6327798908       -1.8330467600
