  62
        -98.94017134
 C          1.6369740292        1.0826642701        0.0982205004
 C          2.7482551093        0.9210639105        0.9598094904
 C          3.5326894496       -0.3145488294        0.7968213605
 C          3.1308505097       -1.2272998396       -0.1045904294
 C          3.8087300000       -2.5225287695       -0.4558256793
 C          4.7454859599       -2.3327569794       -1.6611856893
 C          6.1608655399       -1.8737782690       -1.3123953594
 H          6.6983864900       -2.6971606089       -0.8372701193
 H          6.6706630198       -1.6502117290       -2.2524829895
 C          6.2470650796       -0.6451695689       -0.4028319296
 H          5.5191546794        0.1025970709       -0.7230559496
 H          7.2381000395       -0.2047622087       -0.5292962896
 C          6.0378917697       -0.9777233088        1.0821296705
 H          6.0977187800       -2.0576947088        1.2161094006
 H          6.8545563496       -0.5484034985        1.6662440804
 C          4.7309761696       -0.4524847690        1.6957343005
 H          4.4583942298       -1.0830793590        2.5484392705
 H          4.8952929994        0.5537907511        2.0937222703
 H          4.2805695198       -1.6098718896       -2.3365702494
 H          4.8212992601       -3.2797612494       -2.1994044492
 H          4.3449124301       -2.9219460492        0.3997637108
 H          3.0206208502       -3.2240092897       -0.7366612592
 O          2.0321920897       -1.0497066599       -0.8876800694
 C          1.2725308994        0.1073967499       -0.8294587795
 O          0.3269996094        0.1353115996       -1.6394323795
 H         -1.5071442210        2.0756546093       -1.2378882397
 C         -1.6370625709        1.8163715894       -0.1995487696
 C         -0.5763663309        1.9373393797        0.6829714303
 C         -0.7716146608        1.5744962098        2.0133003804
 C         -1.9976578907        1.1057270096        2.4459468405
 C         -3.0499194507        0.9657743293        1.5567947205
 C         -2.8590928608        1.3130467491        0.2265478405
 N         -3.9027873508        1.1266507188       -0.6964832995
 S         -4.7487664605       -0.3137821814       -0.6150993393
 O         -5.1907997505       -0.5743621116       -1.9679446492
 O         -5.8005140405       -0.1937544515        0.3658973907
 C         -3.5924414802       -1.5686055510       -0.0831876392
 C         -2.3502668802       -1.6513059908       -0.6799051092
 C         -1.4712105700       -2.6364193306       -0.2590692691
 C         -1.8467009797       -3.5247235006        0.7361772210
 C         -3.1011709297       -3.4338062808        1.3194990210
 C         -3.9815164900       -2.4457791710        0.9099250609
 H         -4.9610773000       -2.3308212912        1.3452124310
 H         -3.3927873796       -4.1252001808        2.0936424811
 H         -1.1568167595       -4.2887836004        1.0585033011
 H         -0.4926467800       -2.6869685704       -0.7108148191
 H         -2.0503151404       -0.9518758509       -1.4440378993
 H         -3.6385432209        1.3321602788       -1.6492890595
 H         -4.0097476006        0.5886170391        1.8715274006
 H         -2.1354156906        0.8354123097        3.4817111205
 H          0.0584595892        1.6537473601        2.7014446503
 C          0.8009941190        2.3456831200        0.2264491202
 H          1.2739745089        2.9309132302        1.0261316702
 C          0.8167763488        3.1588909198       -1.0505277398
 C          0.3511386784        4.5832207397       -1.0240376000
 C          1.8069201385        4.2734494000       -1.1972266200
 H          2.2583249884        4.4369744200       -2.1644326500
 H          2.4730028485        4.4621427703       -0.3681917800
 H          0.0264629384        4.9822138297       -0.0750941400
 H         -0.1983128817        4.9635726295       -1.8717431400
 H          0.6039876889        2.5714650097       -1.9360132698
 O          3.0779106691        1.7783870506        1.8225157902
