  62
        -98.94098534
 C         -1.1165443493       -1.3247782729        0.6052234639
 C         -1.6361733842       -0.8077922525       -0.6035916598
 C         -2.4955205123        0.3882669986       -0.4914066948
 C         -2.6594124689        0.9747477099        0.7084385188
 C         -3.4356812358        2.2061492768        1.1275645678
 C         -4.3831564836        2.8978077664        0.1515424753
 C         -5.6561260412        2.1089152012       -0.1586899893
 H         -6.2972691476        2.1278975717        0.7262584332
 H         -6.1896450762        2.6166377330       -0.9649841505
 C         -5.4492365091        0.6454962402       -0.5414958333
 H         -4.9642303286        0.1156251592        0.2806666553
 H         -6.4352549299        0.1931091836       -0.6781897288
 C         -4.6513118019        0.4117418695       -1.8220395960
 H         -5.1242025378        0.9418583132       -2.6512433234
 H         -4.6902642594       -0.6580610924       -2.0448010507
 C         -3.1710638226        0.8219424506       -1.7612861691
 H         -2.6475900298        0.3092219778       -2.5737593907
 H         -3.0570836363        1.8906729316       -1.9228014922
 H         -4.6855509716        3.8380228156        0.6203606673
 H         -3.8608891301        3.1582265345       -0.7643344081
 H         -3.9962887154        1.9180036276        2.0228142487
 H         -2.6835040426        2.9291269540        1.4604523265
 O         -2.0374060944        0.5017395926        1.8294303250
 C         -1.2821286103       -0.6531312519        1.8153294850
 O         -0.8068196532       -0.9706526285        2.9259537312
 O         -1.4076027328       -1.3133547419       -1.7319115398
 C         -0.2821105404       -2.5962599678        0.6235143983
 C          1.0599947613       -2.2924532044        0.0043921730
 C          1.4977236932       -2.8172798966       -1.2031575619
 C          2.7257593026       -2.4429731078       -1.7246283899
 C          3.5409998639       -1.5489872293       -1.0547312495
 C          3.1103053871       -1.0205812892        0.1562143449
 C          1.8810742072       -1.3921964628        0.6746925390
 H          1.5418199018       -0.9753005318        1.6150566474
 N          3.9293646871       -0.0932988498        0.8421111728
 S          4.1060568866        1.3974406127        0.1005063519
 O          4.7768017985        1.2092197924       -1.1597555858
 O          4.7757204317        2.2389962697        1.0652237985
 C          2.4447380917        1.9867959320       -0.1729187362
 C          1.8957137585        2.8764772272        0.7282996408
 C          0.5941528736        3.3094459520        0.5343054485
 C         -0.1362783769        2.8351047392       -0.5438193422
 C          0.4233837013        1.9290740830       -1.4310866179
 C          1.7277004813        1.5001904484       -1.2481340809
 H          2.1947931184        0.8044812528       -1.9259454796
 H         -0.1527304727        1.5458465213       -2.2579014269
 H         -1.1486131747        3.1732932201       -0.6953066542
 H          0.1545288306        4.0125939638        1.2237354880
 H          2.5005761339        3.2224835837        1.5513044764
 H          3.6341508967        0.0537969413        1.7978974251
 H          4.4908199364       -1.2353120396       -1.4562003576
 H          3.0523289463       -2.8546241929       -2.6675534917
 H          0.8732897120       -3.5088447277       -1.7436345626
 H         -0.1129981540       -2.8265532876        1.6850035877
 C         -1.0118822481       -3.7569832145       -0.0154579680
 C         -0.5747541628       -5.1577697674        0.2869351705
 C         -1.8673173324       -4.6397606628        0.8406025869
 H         -2.7926752275       -5.0153862267        0.4303396153
 H         -1.9186467234       -4.4157755482        1.8964774810
 H         -0.6127110154       -5.8929417609       -0.5023200358
 H          0.2531246294       -5.2860824577        0.9679591091
 H         -1.3690745515       -3.5381778548       -1.0138216003
