  62
        -98.93248913
 C         -2.6071374054       -1.2302448305        0.2040769584
 C         -3.0034219913       -0.2434078176        1.1402252545
 C         -4.1993187262        0.5519525750        0.8162079294
 C         -4.8503293183        0.3162929534       -0.3380348577
 C         -6.1074354261        0.9292080185       -0.9192279552
 C         -6.6902823014        2.2140832478       -0.3369148522
 C         -5.8329265607        3.4606348031       -0.5544463160
 H         -5.8502498532        3.7118498220       -1.6179576946
 H         -6.2903998771        4.2894148397       -0.0097462534
 C         -4.3700641546        3.3375502392       -0.1353678507
 H         -3.8777275696        4.2882066109       -0.3575276886
 H         -3.8776075125        2.5726519911       -0.7393592676
 C         -4.1362608209        3.0286659240        1.3420268727
 H         -4.6501799542        3.7687292330        1.9586238433
 H         -3.0634189937        3.1213665853        1.5315633501
 C         -4.5662281740        1.6247202682        1.8007480205
 H         -4.0260864243        1.3908138442        2.7228786256
 H         -5.6290965780        1.5909386473        2.0280547082
 H         -6.9121529089        2.0822195353        0.7179982899
 H         -7.6456731249        2.3793029852       -0.8424460114
 H         -6.8714911633        0.1458944193       -0.8631039629
 H         -5.9004202938        1.0798579592       -1.9835156352
 O         -4.4351466791       -0.6482929332       -1.2081903008
 C         -3.3110076006       -1.4315694398       -0.9824290605
 O         -3.0755833811       -2.2386406336       -1.8989450334
 O         -2.3849665414       -0.0435786296        2.2210382179
 C         -1.3727962618       -2.0410751783        0.5548959796
 C         -0.1329943111       -1.3809713313        0.0074757568
 C         -0.0231780562       -1.0549064572       -1.3410141028
 C          1.1225876848       -0.4484378452       -1.8223111616
 C          2.1743034131       -0.1465445631       -0.9741821109
 C          2.0740425235       -0.4637369222        0.3733919351
 C          0.9247831609       -1.0813892810        0.8527288686
 H          0.8449903151       -1.3162994936        1.9056985410
 N          3.1230548789       -0.1372164019        1.2448303112
 S          4.7055478759       -0.4558250907        0.7928788094
 O          4.7828234285       -1.5974269008       -0.0882493605
 O          5.4364353703       -0.5528105022        2.0371082750
 C          5.2124226054        1.0188350280       -0.0662103879
 C          5.7721690229        0.9230506371       -1.3251100354
 C          6.1715910108        2.0827968001       -1.9710807271
 C          6.0059514094        3.3108631611       -1.3494265842
 C          5.4445737572        3.3896536777       -0.0835144729
 C          5.0446316882        2.2341228325        0.5682006902
 H          4.6069952026        2.2537835599        1.5523786953
 H          5.3168946972        4.3465818213        0.3965001811
 H          6.3158194871        4.2121540313       -1.8544407841
 H          6.6085309802        2.0236726405       -2.9549990396
 H          5.8760471584       -0.0527021450       -1.7726571963
 H          2.9551724472       -0.3838247791        2.2090582408
 H          3.0665435521        0.3286692194       -1.3475115704
 H          1.1970234514       -0.2034931756       -2.8710880094
 H         -0.8441194385       -1.2850673901       -2.0036125577
 H         -1.3123578817       -1.9902027611        1.6539509567
 C         -1.4862691465       -3.5118238265        0.1802636574
 C         -0.6770811032       -4.1669980931       -0.8941925576
 C         -0.3837751096       -4.4625446788        0.5441977394
 H         -0.6431550582       -5.4321187691        0.9414806714
 H          0.5182643399       -4.0405062246        0.9627901679
 H         -1.1636775026       -4.9208116202       -1.4938960292
 H          0.0311235594       -3.5672907157       -1.4435275471
 H         -2.5003157708       -3.8793139039        0.3011410595
