  62
        -98.94174993
 C         -2.7594622300       -0.0311761480       -0.1562462502
 C         -2.0370030795        0.7407675814       -1.0981992303
 C         -1.8320096885        2.1551066713       -0.7540042505
 C         -2.3197347083        2.6381471118        0.4014559794
 C         -2.1389405974        4.0445087818        0.8926366592
 C         -0.8962120273        4.1800202611        1.7830016293
 C          0.3766939223        3.5785529601        1.1859363194
 H          1.1914993824        3.7970903597        1.8806718795
 H          0.2860239916        2.4898346602        1.1455023296
 C          0.7427415828        4.1050473696       -0.2086604806
 H          0.2342511934        5.0519752700       -0.3958357708
 H          1.8167586029        4.3019828589       -0.2324851206
 C          0.4402184722        3.1272284797       -1.3459551705
 H          0.8169610215        2.1369669695       -1.0749290303
 H          0.9770705725        3.4599555892       -2.2386794205
 C         -1.0405894279        2.9877101306       -1.7226961906
 H         -1.4882471872        3.9763399309       -1.8422179908
 H         -1.0953004582        2.4660421705       -2.6825727405
 H         -0.7362641266        5.2411117310        1.9857184091
 H         -1.0938712977        3.6785334814        2.7334062093
 H         -2.0594109168        4.7129948716        0.0374024091
 H         -3.0204164572        4.3183722125        1.4753813891
 O         -3.0230391589        1.8750587124        1.2767571995
 C         -3.2341317698        0.5304002025        1.0338081797
 O         -3.8670643602       -0.0562198969        1.9356412697
 O         -1.5701816297        0.2970581709       -2.1833695602
 C         -3.0012363911       -1.5289955678       -0.2984032200
 C         -1.7772716616       -2.2630576086        0.1965320202
 C         -1.8401188723       -3.1569584684        1.2584802403
 C         -0.6876787127       -3.7336351891        1.7657487505
 C          0.5526455875       -3.4096548500        1.2438466006
 C          0.6202103082       -2.5256186202        0.1772457004
 C         -0.5360622914       -1.9830974695       -0.3562464097
 H         -0.4660613708       -1.2904229797       -1.1817157299
 N          1.8930272286       -2.0986965712       -0.3010980396
 S          2.4288647793       -0.8402504214        0.7091797203
 O          2.6869194189       -1.4078415513        2.0090669604
 O          1.4967045101        0.2653081893        0.6713002500
 C          3.9695046197       -0.3790709825       -0.0603872397
 C          5.0194774991       -1.2759194132       -0.0070248294
 C          6.2180190494       -0.9387387341       -0.6146404594
 C          6.3455821002        0.2820218757       -1.2612965496
 C          5.2826958809        1.1710613864       -1.3056785798
 C          4.0798215406        0.8390984873       -0.7014456798
 H          3.2279534010        1.5006956379       -0.7077769000
 H          5.3837860415        2.1200953962       -1.8071172700
 H          7.2800137705        0.5432575250       -1.7323299196
 H          7.0474484289       -1.6265346947       -0.5818287892
 H          4.8756289684       -2.2079986731        0.5132513607
 H          1.7960237389       -1.7026490812       -1.2298678996
 H          1.4621734672       -3.8047573406        1.6655262307
 H         -0.7541343932       -4.4218073489        2.5948552506
 H         -2.7978835225       -3.3746304976        1.7087334803
 H         -3.8318239313       -1.7655841372        0.3802884200
 C         -3.3855515112       -1.9638566178       -1.6981430300
 C         -4.1177223621       -3.2583851573       -1.8781817298
 C         -4.8294427912       -1.9576687669       -2.0962076701
 H         -5.0832441409       -1.6673722768       -3.1044636501
 H         -5.5496855611       -1.6396329063       -1.3562404302
 H         -3.8825288025       -3.8662678176       -2.7381160897
 H         -4.3588943026       -3.8246393370       -0.9913071997
 H         -2.6613303710       -1.6833731284       -2.4509084700
