  62
        -98.94067774
 C          2.5695163504        1.4038356446        0.2152495140
 C          2.8015205891        0.5473183021       -0.8887342763
 C          3.7325335248       -0.5684787032       -0.6522575246
 C          4.2898127273       -0.7263582490        0.5611057151
 C          5.2119314755       -1.8456076335        0.9471622437
 C          4.4345473217       -3.0336717785        1.5302506075
 C          3.2419823015       -3.4704170472        0.6789958729
 H          2.4886834862       -2.6782164535        0.6826969234
 H          2.7917151945       -4.3366408043        1.1690275352
 C          3.5942848555       -3.8299792710       -0.7713104523
 H          3.0769900226       -4.7544042626       -1.0368271945
 H          4.6647082605       -4.0208235144       -0.8561377358
 C          3.1832460654       -2.7788759018       -1.8041103847
 H          2.1316531565       -2.5168329020       -1.6571244391
 H          3.2715842297       -3.2267515322       -2.7976331835
 C          4.0110870715       -1.4872016345       -1.8089387638
 H          3.7445959319       -0.9259542919       -2.7093744507
 H          5.0736592705       -1.7329092156       -1.8588790740
 H          4.0632406463       -2.7541608444        2.5189011786
 H          5.1234850520       -3.8717459198        1.6499094057
 H          5.7767606253       -2.1618873882        0.0723926809
 H          5.9060635286       -1.4725112714        1.7020691488
 O          4.0360563177        0.1079023926        1.6009014450
 C          3.1725314470        1.1793719627        1.4570266602
 O          3.0301465267        1.8613039381        2.4914494328
 H          0.2056363023        0.7938196600       -1.2068137932
 C         -0.3677759672        1.2376042194       -0.4058337404
 C          0.2226561686        2.2107760807        0.3895937268
 C         -0.5230902654        2.7687439296        1.4205931043
 C         -1.8277484952        2.3631183384        1.6438971149
 C         -2.4140290070        1.3981090740        0.8446282457
 C         -1.6741003314        0.8289241129       -0.1837969654
 N         -2.2603517032       -0.1528232074       -1.0050185774
 S         -2.9330014439       -1.4887336500       -0.2389491706
 O         -2.2920513219       -1.7474035116        1.0304987747
 O         -2.8847579268       -2.5556734117       -1.2145892212
 C         -4.6297011674       -1.0116594648        0.0144784318
 C         -5.1724550975       -1.0350363971        1.2841435058
 C         -6.4965844202       -0.6606628075        1.4536419973
 C         -7.2499755379       -0.2725416707        0.3563605525
 C         -6.6904822608       -0.2571988809       -0.9127864863
 C         -5.3679883036       -0.6311227576       -1.0891891104
 H         -4.8957441434       -0.6361917420       -2.0573635297
 H         -7.2795379938        0.0450201196       -1.7636267478
 H         -8.2794265284        0.0195821241        0.4911270024
 H         -6.9331366900       -0.6721827765        2.4394458448
 H         -4.5459850324       -1.3378530145        2.1081482670
 H         -1.6548590436       -0.4484252491       -1.7583092613
 H         -3.4288358779        1.0774348618        1.0148774452
 H         -2.3947397346        2.8031468330        2.4499581452
 H         -0.0670481030        3.5110527436        2.0593070552
 C          1.6539247491        2.6179570463        0.1517998869
 H          1.9632696554        3.2490650776        0.9993339419
 C          1.8492254906        3.4371111257       -1.1184998832
 C          0.7904695649        3.6333536980       -2.1582822484
 C          1.1671183959        4.7664582988       -1.2552830451
 H          1.7243173370        5.5963163877       -1.6625634679
 H          0.4646337287        5.0408731540       -0.4826017214
 H         -0.1691430388        3.1637365307       -2.0109855379
 H          1.1064604240        3.6615199307       -3.1900702305
 H          2.8694887711        3.3768467972       -1.4833254460
 O          2.2715607536        0.6862163125       -2.0224976581
