  62
        -98.94701573
 C         -1.5181053928       -1.0635916351        0.0687510744
 C         -2.5290073384       -0.6045342287        0.9434003161
 C         -3.0855017501        0.7173997053        0.6391449434
 C         -2.5886146190        1.4297742043       -0.3890249080
 C         -3.0268917197        2.8090457792       -0.8013726938
 C         -4.2666336540        2.8300225826       -1.7062512707
 C         -5.5869350528        2.5021347502       -1.0077937979
 H         -5.6966354876        3.1356172120       -0.1270368773
 H         -6.3890986995        2.7643872349       -1.7003441605
 C         -5.7420609362        1.0283829474       -0.6076263008
 H         -5.0160441833        0.4241228585       -1.1561946404
 H         -6.7352898034        0.6758239851       -0.8940347116
 C         -5.5796943822        0.7570481453        0.8878738231
 H         -5.6739706959       -0.3191708499        1.0532197365
 H         -6.3799460959        1.2542810902        1.4403515772
 C         -4.2332600873        1.2083748192        1.4694313435
 H         -4.2034138448        2.2947701520        1.5546704093
 H         -4.1283203484        0.7775772343        2.4685891752
 H         -4.3429477584        3.8343933171       -2.1290228539
 H         -4.1073474125        2.1325750084       -2.5317056101
 H         -3.2105256853        3.4140171701        0.0873184628
 H         -2.1883911586        3.2472789767       -1.3474172827
 O         -1.5881873492        0.9699325601       -1.1837924645
 C         -1.0234387985       -0.2761865041       -0.9720511874
 O         -0.1109883729       -0.5694826717       -1.7683021063
 H          0.3051633295       -0.5945779175        1.8306862325
 C          1.0364769875       -1.2046622265        1.3139430307
 C          0.6047022456       -2.2396289419        0.4927728252
 C          1.5621099132       -3.0096145080       -0.1545541572
 C          2.9096006105       -2.7211090690       -0.0174836479
 C          3.3284605554       -1.6481078380        0.7480999893
 C          2.3787766612       -0.8905875650        1.4194385328
 N          2.8047041309        0.2728010467        2.1290956894
 S          2.5601414653        1.6426848770        1.1645909712
 O          3.0842470861        2.7570893497        1.9272036958
 O          1.1723150957        1.7696547479        0.7698238513
 C          3.6031049762        1.3036571013       -0.2318617117
 C          3.0739505726        0.6813114489       -1.3451607465
 C          3.9231633064        0.3735254678       -2.3974870537
 C          5.2710455203        0.6877857866       -2.3178380008
 C          5.7841125051        1.3135889332       -1.1911678508
 C          4.9440025565        1.6224300067       -0.1340936346
 H          5.2919952727        2.1085371972        0.7624709983
 H          6.8326815494        1.5571282343       -1.1326071029
 H          5.9248735358        0.4424127130       -3.1398868474
 H          3.5199418059       -0.1164247174       -3.2691782159
 H          2.0213885390        0.4411302297       -1.3788100434
 H          2.2889727996        0.4105645138        2.9893792473
 H          4.3704725831       -1.3855866213        0.8302543621
 H          3.6397177883       -3.3235436637       -0.5350689325
 H          1.2503944386       -3.8265201757       -0.7846752746
 C         -0.8816964927       -2.4206080511        0.3169936815
 H         -1.3105462332       -2.7789194038        1.2648829686
 C         -1.2491778745       -3.3902732627       -0.7863639655
 C         -1.3297214218       -4.8606183878       -0.5063781491
 C         -2.5826828681       -4.0716042687       -0.7355345152
 H         -3.1240573819       -4.2146536902       -1.6586096774
 H         -3.2165819969       -3.8548398861        0.1120061548
 H         -1.1168282089       -5.1902767424        0.4991769361
 H         -1.0135538078       -5.5499251035       -1.2745042364
 H         -0.8879123054       -3.0691682017       -1.7570305044
 O         -2.9375321877       -1.2642033685        1.9392848537
