  62
        -98.94947453
 C         -0.9878020515       -1.7016864796       -0.2864523503
 C         -2.2795381818       -1.5718221582        0.2723935885
 C         -3.0750358803       -0.4386773175       -0.2119377623
 C         -2.5537355087        0.3990804318       -1.1263472820
 C         -3.2285157670        1.6180311224       -1.6951088727
 C         -3.1169790166        2.8588989024       -0.7975520028
 C         -4.0130073777        2.8492680935        0.4415871565
 H         -4.0257468570        3.8681693435        0.8340885863
 H         -5.0344753277        2.5964050144        0.1540330356
 C         -3.5357310495        1.9045886731        1.5534814270
 H         -3.5954679999        2.4189103933        2.5160888569
 H         -2.4813818096        1.6611497021        1.3973437879
 C         -4.3444434509        0.6133524940        1.6823280365
 H         -3.8797816522       -0.0038827464        2.4556495370
 H         -5.3608530410        0.8505629350        2.0064781656
 C         -4.4269697706       -0.2187250761        0.3968564965
 H         -4.8373496418       -1.1991227557        0.6529616163
 H         -5.0924439995        0.2625034344       -0.3197807041
 H         -2.0781660168        2.9745275415       -0.4763717119
 H         -3.3791992652        3.7284261626       -1.4053585531
 H         -4.2798376171        1.4028144034       -1.8894833936
 H         -2.7363431560        1.8324452718       -2.6462108023
 O         -1.3208819684        0.2182939606       -1.6687703609
 C         -0.4990405598       -0.8171455702       -1.2485693400
 O          0.6164905407       -0.8465667313       -1.8010552591
 O         -2.7439025933       -2.3627098677        1.1393548282
 C         -0.0651817030       -2.7889258504        0.2260848506
 C          1.2194918371       -2.1976706116        0.7570513616
 C          2.4165379464       -2.9053307028        0.7701650127
 C          3.5707497966       -2.3254160638        1.2666817636
 C          3.5675432275       -1.0224520138        1.7313958135
 C          2.3764720482       -0.3068416826        1.7212567724
 C          1.2142999380       -0.9073955315        1.2675451714
 H          0.2977049885       -0.3378150906        1.2895326306
 N          2.3157852791        1.0294596175        2.1579363621
 S          1.5057294710        2.1492847082        1.2185613413
 O          1.9724497418        3.4284011878        1.7179078515
 O          0.0811885207        1.9417474796        1.2940688401
 C          2.0739966522        1.9525152674       -0.4612412182
 C          1.1850327634        2.2020415582       -1.4845347790
 C          1.6195763044        2.1042986776       -2.7956225786
 C          2.9340931343        1.7592576262       -3.0609038874
 C          3.8196966032        1.5195854055       -2.0225254866
 C          3.3908362121        1.6217293661       -0.7096714070
 H          4.0668781712        1.4411932755        0.1097542536
 H          4.8423365431        1.2486255145       -2.2309390057
 H          3.2682470151        1.6724216958       -4.0828489971
 H          0.9259107053        2.2844565181       -3.6012461692
 H          0.1642587134        2.4481799692       -1.2396605399
 H          3.1910300992        1.4090018167        2.4894789928
 H          4.4730660576       -0.5645471246        2.0998841742
 H          4.4905028160       -2.8899488147        1.2756320045
 H          2.4438908858       -3.9128657528        0.3880687529
 H         -0.6022597742       -3.2621109998        1.0627655002
 C          0.1770706969       -3.8332971208       -0.8469777391
 C          0.3120102852       -5.2825874709       -0.4887748388
 C         -0.9241437037       -4.7936729998       -1.1796483999
 H         -1.0820985531       -5.0606638297       -2.2137093800
 H         -1.8357332641       -4.7154854288       -0.6050697307
 H          1.0043081051       -5.8902007816       -1.0519818681
 H          0.2311967040       -5.5523277407        0.5535830812
 H          0.7717919180       -3.4492298715       -1.6681568386
