  62
        -98.93858831
 C         -1.9789677238       -1.3657265319        0.0892865532
 C         -2.3213025627       -0.3749831868       -0.8596232167
 C         -3.6936200427        0.1631321618       -0.7877492316
 C         -4.5378375776       -0.2794485281        0.1617206897
 C         -5.9856337609        0.0590746972        0.4488818662
 C         -6.6360876568        1.2995722555       -0.1582524604
 C         -6.0727635222        2.6292585607        0.3419237357
 H         -6.3537156228        2.7541097317        1.3907582165
 H         -6.5440342436        3.4343994162       -0.2261672280
 C         -4.5561065767        2.7797004192        0.2511542679
 H         -4.0743740229        2.0492436411        0.9047795753
 H         -4.2952578518        3.7707810099        0.6326720326
 C         -3.9682838391        2.6536097178       -1.1531855146
 H         -2.9154458445        2.9436656236       -1.0945753706
 H         -4.4697285251        3.3525048449       -1.8255914739
 C         -4.0277201585        1.2463450073       -1.7728804642
 H         -3.2702923173        1.1930892357       -2.5601489059
 H         -4.9930887445        1.0581861035       -2.2361969663
 H         -7.6925042593        1.2637808974        0.1215528955
 H         -6.5971198139        1.2545471264       -1.2426844272
 H         -6.5632886550       -0.8193317782        0.1401061555
 H         -6.0656300224        0.1115172913        1.5393612900
 O         -4.1632764558       -1.2367698191        1.0591258264
 C         -2.8996146252       -1.7929946044        1.0508936111
 O         -2.7165450684       -2.6525358041        1.9355803698
 H          0.3512928833        0.3452088358       -0.7019639048
 C          0.7995969682        0.0467960995        0.2339547307
 C          0.4018372175       -1.1425730075        0.8282192495
 C          0.9759301891       -1.5042705969        2.0410984372
 C          1.9198671165       -0.6918947172        2.6456395968
 C          2.3119433731        0.4940382124        2.0517755583
 C          1.7411494670        0.8645160191        0.8407675000
 N          2.1457882965        2.0627160579        0.2214793773
 S          3.7964209218        2.2567157237        0.0098938713
 O          4.3842255531        2.7372172959        1.2358415829
 O          3.9433846451        3.1209980492       -1.1400283052
 C          4.3997449609        0.6160339365       -0.3479876441
 C          5.2356958117       -0.0229207260        0.5444877159
 C          5.6414903571       -1.3195261108        0.2714743541
 C          5.2023551179       -1.9525113993       -0.8806473356
 C          4.3655730260       -1.2951622837       -1.7694539482
 C          3.9566674505        0.0006920667       -1.5020772209
 H          3.3082741951        0.5398989721       -2.1742918237
 H          4.0265928987       -1.7876290022       -2.6667598811
 H          5.5135823954       -2.9639030459       -1.0892390449
 H          6.2940353732       -1.8323889502        0.9594796897
 H          5.5505794898        0.5050861130        1.4296442636
 H          1.6481380977        2.2522538124       -0.6367360541
 H          3.0446631954        1.1409994084        2.5066309697
 H          2.3547227748       -0.9848845479        3.5889325786
 H          0.6666283878       -2.4238929014        2.5161668589
 C         -0.6142784669       -2.0348654398        0.1560385682
 H         -0.7542273463       -2.9184991115        0.7924498036
 C         -0.1115058558       -2.4961375544       -1.1991655083
 C          0.9532091615       -3.5479937897       -1.2556775308
 C         -0.4479744969       -3.8757912507       -1.6748064844
 H         -0.6548929397       -4.0222624343       -2.7243636744
 H         -1.0448379376       -4.4975525490       -1.0231574174
 H          1.3090938304       -3.9493627243       -0.3191507635
 H          1.7125222064       -3.4710447906       -2.0180548575
 H         -0.0851343020       -1.7089894279       -1.9404440628
 O         -1.5393221030        0.0588483199       -1.7488324953
