  62
        -98.94520949
 C         -1.8533063358       -1.2806725885       -0.0590300003
 C         -3.0060227806       -0.8315481407        0.6273646935
 C         -3.7136986810        0.3008739164        0.0182374720
 C         -3.2516662902        0.8408866222       -1.1244473620
 C         -3.8789520465        1.9800622201       -1.8818710971
 C         -3.4943949701        3.3710175918       -1.3591528889
 C         -4.1284223828        3.7628099042       -0.0238314655
 H         -3.9499101123        4.8309775576        0.1150419545
 H         -5.2077748847        3.6178155265       -0.0784668957
 C         -3.5670215054        3.0076891037        1.1892065500
 H         -2.6132259192        2.5465563064        0.9206479792
 H         -3.3620943755        3.7148568950        1.9964044349
 C         -4.4965778552        1.9324608749        1.7525632117
 H         -5.4009168813        2.4012908837        2.1465498529
 H         -3.9858716685        1.4378146958        2.5830626782
 C         -4.9054084892        0.8561736470        0.7382592144
 H         -5.3772322650        0.0346446878        1.2830186606
 H         -5.6246960144        1.2631768792        0.0278559937
 H         -2.4063088196        3.4271330992       -1.2756205496
 H         -3.8063466248        4.0992274938       -2.1113162644
 H         -3.5337043681        1.8936602899       -2.9143524530
 H         -4.9640840912        1.8739128188       -1.8688551732
 O         -2.1365426312        0.3826237788       -1.7523245299
 C         -1.4052244311       -0.6820883625       -1.2370869572
 O         -0.4028251749       -0.9844967537       -1.9073733506
 O         -3.4234907896       -1.3511549522        1.6977971095
 C         -1.0709126352       -2.4517748070        0.5038372379
 C          0.3706415214       -2.0803505807        0.7536653737
 C          1.4229722778       -2.9618990326        0.5385030042
 C          2.7282586332       -2.5766153494        0.7923414562
 C          3.0164472113       -1.3057065212        1.2534340778
 C          1.9723449068       -0.4140644217        1.4650620533
 C          0.6645725836       -0.8095487667        1.2309055367
 H         -0.1440144887       -0.1102640873        1.4064778771
 N          2.2563168943        0.8928315126        1.8965302851
 S          3.5204586563        1.6953883441        1.1444637356
 O          4.7550694826        1.3769615443        1.8190456171
 O          3.1433388118        3.0923227002        1.1619796086
 C          3.5816975298        1.0785287881       -0.5291935722
 C          4.7748455020        0.5978025207       -1.0297665751
 C          4.8082312718        0.1052183822       -2.3242399855
 C          3.6510826688        0.0909551689       -3.0875702906
 C          2.4604710542        0.5796204188       -2.5721431421
 C          2.4254268656        1.0843488932       -1.2830819680
 H          1.5070689349        1.4640977422       -0.8633003666
 H          1.5503435263        0.5450834650       -3.1488969801
 H          3.6724284547       -0.3062089303       -4.0901044331
 H          5.7323862787       -0.2739494445       -2.7298194550
 H          5.6458838816        0.6128041700       -0.3948021652
 H          1.4434034211        1.4868396201        1.9680416810
 H          4.0271702561       -0.9881314921        1.4531762317
 H          3.5337209222       -3.2741337299        0.6221439923
 H          1.2208423628       -3.9533663584        0.1684181353
 H         -1.5389538673       -2.6761559486        1.4747069780
 C         -1.2263444770       -3.6595796415       -0.3987507936
 C         -1.2503157427       -5.0436287801        0.1759061916
 C         -2.5103509791       -4.4308205447       -0.3546379315
 H         -2.9200821727       -4.8057140225       -1.2805048177
 H         -3.2592096128       -4.1038697783        0.3521907862
 H         -0.7958321357       -5.8440951451       -0.3882780066
 H         -1.1499210811       -5.1443787528        1.2460761695
 H         -0.7634163123       -3.5134805998       -1.3683020085
