  62
        -98.93504393
 C         -1.9952816352       -0.5839025622        0.5371713762
 C         -2.8324465315        0.4328460697        1.0833544610
 C         -4.2720570192        0.3341405872        0.8191750860
 C         -4.7345920607       -0.7038490335        0.1010151344
 C         -6.1682420939       -0.9155074810       -0.2869897164
 C         -6.4759007720       -0.2713777697       -1.6460170885
 C         -5.9947929285        1.1746272741       -1.7675574872
 H         -4.9028428201        1.1918510148       -1.7371604166
 H         -6.2938297519        1.5351084819       -2.7542056836
 C         -6.5449053972        2.1197321471       -0.6901658720
 H         -6.8703593522        3.0455074217       -1.1693363947
 H         -7.4214645792        1.6742445952       -0.2182937029
 C         -5.5328342860        2.5098061468        0.3889504587
 H         -4.6145750103        2.8704603467       -0.0818719625
 H         -5.9520920116        3.3396670082        0.9642688589
 C         -5.1609601142        1.4049141312        1.3858463487
 H         -4.5939197441        1.8675629754        2.1989377840
 H         -6.0692970323        0.9679307123        1.8061260968
 H         -5.9889893234       -0.8603939464       -2.4265720917
 H         -7.5539786183       -0.3130984016       -1.8113917004
 H         -6.3522978638       -1.9891460952       -0.3534865087
 H         -6.8124354502       -0.4930851835        0.4818121887
 O         -3.9193606707       -1.6617404069       -0.3965412034
 C         -2.5413454112       -1.6283769663       -0.2139502269
 O         -1.9681058327       -2.5790779066       -0.7779909284
 O         -2.3896309033        1.3921734705        1.7725110677
 C         -0.5205236300       -0.4238148451        0.8617272757
 C          0.3836564715       -0.0636451435       -0.2967939877
 C          0.2913381893       -0.6424392931       -1.5567678985
 C          1.1729625615       -0.2820481610       -2.5610967265
 C          2.1804323264        0.6355001553       -2.3251067959
 C          2.2930524550        1.2095093101       -1.0647994359
 C          1.3892998551        0.8687883643       -0.0691240538
 H          1.4848361390        1.3367683233        0.8994961260
 N          3.3194400138        2.1311713369       -0.7757958149
 S          4.3613540936        1.7602422051        0.4826074985
 O          3.6484919158        1.7878399675        1.7331999793
 O          5.4603780605        2.6890825045        0.3456404156
 C          4.9136298761        0.1039332251        0.1161099250
 C          4.1344794526       -0.9685521814        0.5027146520
 C          4.5270825193       -2.2461018670        0.1362857427
 C          5.6856104157       -2.4293910181       -0.6027532617
 C          6.4601492783       -1.3423140032       -0.9787008293
 C          6.0686250600       -0.0617871941       -0.6232400146
 H          6.6409405304        0.8114957493       -0.8918461134
 H          7.3626513410       -1.4885502918       -1.5500035297
 H          5.9856553572       -3.4260581989       -0.8854520340
 H          3.9218693803       -3.0904203244        0.4252420712
 H          3.2405654482       -0.7923048727        1.0782025474
 H          3.8550014176        2.4077538449       -1.5870368330
 H          2.8718125493        0.9082674701       -3.1081122744
 H          1.0796223449       -0.7339514187       -3.5368922646
 H         -0.4693715811       -1.3811194637       -1.7472017633
 H         -0.5187805706        0.4518618401        1.5305926280
 C          0.1511982859       -1.5361133162        1.6682585626
 C         -0.6097589725       -2.6277044712        2.3541205035
 C          0.2931377482       -2.9514951430        1.2020946386
 H          1.2216950877       -3.4632981518        1.4082800525
 H         -0.1734558507       -3.2226102093        0.2698374306
 H         -0.3138194775       -2.9136793962        3.3527709390
 H         -1.6752466961       -2.6787517797        2.1819225544
 H          1.0000021667       -1.1402444500        2.2212896866
