  62
        -98.94529087
 C         -2.1240909118       -0.9191465020        0.0725422905
 C         -2.8338882861       -0.2318604158        1.0850839748
 C         -3.5299626399        0.9919335641        0.6661594595
 C         -3.4164507913        1.4083565890       -0.6085456790
 C         -4.1045192951        2.6131642783       -1.1807369195
 C         -5.4701884983        2.2433457377       -1.7765014009
 C         -6.3447740025        1.4067982351       -0.8426076371
 H         -7.2934390473        1.2332036909       -1.3548770788
 H         -5.8757176377        0.4314268586       -0.6946750283
 C         -6.6120945205        2.0525814997        0.5240981689
 H         -6.3997439046        3.1212613822        0.4768837222
 H         -7.6721514788        1.9428076224        0.7619319375
 C         -5.8296177634        1.4314266774        1.6825519067
 H         -6.2507729132        1.8084051265        2.6182779924
 H         -5.9648841975        0.3469967097        1.6758775643
 C         -4.3249649434        1.7289242764        1.7074306685
 H         -3.9358487401        1.3936103913        2.6734839769
 H         -4.1607940713        2.8056685016        1.6271641617
 H         -5.9920918941        3.1652133130       -2.0394576273
 H         -5.3039360181        1.6731164366       -2.6933240031
 H         -4.2272057535        3.3606941321       -0.3991751975
 H         -3.4723523775        3.0262065955       -1.9688557985
 O         -2.6874505632        0.7463659491       -1.5431262912
 C         -2.0283837643       -0.4347160360       -1.2325212631
 O         -1.4073210376       -0.9420011093       -2.1847198424
 O         -2.8755038189       -0.6187993737        2.2850016849
 C         -1.3841250831       -2.1965469919        0.4293145859
 C          0.0942670749       -2.0018963110        0.1971198501
 C          0.8799436159       -2.8702902298       -0.5478757751
 C          2.2241645195       -2.6033785444       -0.7452934282
 C          2.8137549705       -1.4775041941       -0.2013836711
 C          2.0386397794       -0.6062853074        0.5533490660
 C          0.6946278145       -0.8770216024        0.7508126368
 H          0.0901776446       -0.1925543015        1.3345247491
 N          2.6321737715        0.5390662962        1.1200689935
 S          3.4077486974        1.5957412858        0.0656110782
 O          3.3784473762        2.8804389937        0.7316790304
 O          2.8322057042        1.5451460635       -1.2587943704
 C          5.0848518397        0.9989609963        0.0315125033
 C          5.7718933264        0.9201548893        1.2272297204
 C          7.0787785963        0.4596389597        1.2181010084
 C          7.6735417371        0.0906845616        0.0205160468
 C          6.9711939921        0.1789392060       -1.1716730846
 C          5.6630304208        0.6380874695       -1.1696379333
 H          5.0747707700        0.7182949827       -2.0700378332
 H          7.4349016693       -0.1081038655       -2.1017281609
 H          8.6906853771       -0.2680257628        0.0160068785
 H          7.6282767261        0.3896028981        2.1429434817
 H          5.2730413391        1.2202564469        2.1335364000
 H          2.0031307026        1.0559313803        1.7186425940
 H          3.8583238806       -1.2640564622       -0.3588563315
 H          2.8208855956       -3.2824313045       -1.3348906609
 H          0.4381084128       -3.7495381734       -0.9865643448
 H         -1.5456345150       -2.3360221817        1.5086840134
 C         -1.9695955803       -3.3808089513       -0.3092948537
 C         -1.8587625606       -4.7586858846        0.2698812616
 C         -3.1827292415       -4.0575076811        0.2524962421
 H         -3.9432630604       -4.4031072919       -0.4315252514
 H         -3.5749959564       -3.6783961676        1.1849989023
 H         -1.7120650268       -5.5901933466       -0.4025972289
 H         -1.3531978417       -4.8622972564        1.2178744601
 H         -1.9128936105       -3.2686633700       -1.3861675040
