  62
        -98.94264868
 C         -1.4011730310       -1.1378860305       -0.7469737096
 C         -1.0224227615       -1.9145259990        0.3726750416
 C          0.2273687281       -2.6862065000        0.2417915028
 C          0.9574981782       -2.5737360421       -0.8806046473
 C          2.2302642278       -3.2870659935       -1.2694749862
 C          3.2842372976       -3.5338670025       -0.1854111058
 C          3.4418062782       -2.4004914610        0.8384950925
 H          4.4952100084       -2.1209060016        0.9053162821
 H          2.8905548688       -1.5130753712        0.5210972811
 C          2.9622732779       -2.7871865286        2.2383908631
 H          3.3005591573       -3.8005584784        2.4683178446
 H          3.4215871383       -2.1104821978        2.9630977521
 C          1.4505696280       -2.6964662874        2.4348541229
 H          1.1427637886       -1.6492563273        2.3625418613
 H          1.2180862777       -3.0331843757        3.4485196834
 C          0.6088005875       -3.5108683984        1.4373533541
 H          1.1181596270       -4.4281881791        1.1497204655
 H         -0.3315622727       -3.7757179971        1.9288731144
 H          3.0569652370       -4.4594122715        0.3414813556
 H          4.2330470475       -3.6914403338       -0.7017977755
 H          1.9515338872       -4.2458324440       -1.7179592447
 H          2.6651971382       -2.6779238650       -2.0661789971
 O          0.5806094087       -1.7658641435       -1.9143237686
 C         -0.5907854308       -1.0300598327       -1.8741776698
 O         -0.7935678104       -0.3289823741       -2.8866178608
 H         -0.5530248296        1.2167909798       -0.2325267332
 C         -1.3300826395        1.4161470113        0.4913231865
 C         -2.5324280499        0.7266635419        0.3999142275
 C         -3.5312775998        1.0104188039        1.3214291270
 C         -3.3093624792        1.9372961253        2.3260623656
 C         -2.0912992989        2.5811037948        2.4445412047
 C         -1.0899233890        2.3127156328        1.5178012151
 N          0.1624119914        2.9413678421        1.5869067642
 S          1.5304537809        2.0802692206        1.1467777456
 O          1.4123488600        0.6763398612        1.4585901377
 O          2.6174256013        2.7829157709        1.7986521046
 C          1.6669448011        2.3264572378       -0.6099010948
 C          2.0380185005        1.2666840264       -1.4119140431
 C          2.1647888707        1.4663417642       -2.7767079734
 C          1.9242398515        2.7215666236       -3.3122876454
 C          1.5610543421        3.7796672350       -2.4927215970
 C          1.4316113919        3.5847702172       -1.1272719367
 H          1.1468739124        4.3809098784       -0.4598310879
 H          1.3741758527        4.7538129145       -2.9153123485
 H          2.0170625016        2.8721612019       -4.3762311756
 H          2.4339958302        0.6386814531       -3.4130730322
 H          2.1999854499        0.3007643570       -0.9585500217
 H          0.3170580817        3.5053625933        2.4098826634
 H         -1.9115913385        3.2805415459        3.2467433636
 H         -4.0911566691        2.1468072369        3.0403791252
 H         -4.4775692901        0.4982325544        1.2622163677
 C         -2.6646289505       -0.2960043797       -0.7030260410
 H         -2.7045018401        0.2403583589       -1.6628222818
 C         -3.8932585510       -1.1712471988       -0.5782984697
 C         -5.2053269207       -0.7137619188       -1.1392403004
 C         -4.4478279313       -1.8187159803       -1.8103565187
 H         -4.8274799419       -2.8266645500       -1.7364105372
 H         -3.9527096012       -1.6065767820       -2.7469635290
 H         -6.1098853709       -0.9654583175       -0.6064206301
 H         -5.2324441101        0.2489069805       -1.6268721019
 H         -3.8992334314       -1.7510357274        0.3373039412
 O         -1.7065674916       -1.9861562970        1.4269115917
