  62
        -98.94266891
 C          2.0577836788        1.4171808488        0.0954841544
 C          1.7225790253        0.2834584342       -0.6824788214
 C          2.8260788743       -0.6465248081       -0.9611974206
 C          4.0646848480       -0.3500727532       -0.5267234256
 C          5.2673396414       -1.2306627939       -0.7009801161
 C          5.4456169081       -2.1719542541        0.4988262407
 C          4.1696236142       -2.9124364823        0.8995089356
 H          4.4241350994       -3.5670909653        1.7357675875
 H          3.4390181559       -2.1889057700        1.2683308177
 C          3.5355927608       -3.7432316275       -0.2249413531
 H          4.2682639994       -3.9205555108       -1.0129945338
 H          3.2514506529       -4.7173835607        0.1783082569
 C          2.2742358258       -3.1279284010       -0.8344194412
 H          1.5822942808       -2.8495618609       -0.0352274117
 H          1.7855888797       -3.8902829317       -1.4470836277
 C          2.4959452170       -1.8981433890       -1.7243280908
 H          3.2645347469       -2.1141930698       -2.4690684478
 H          1.5586145243       -1.6907094671       -2.2493901836
 H          6.2275869006       -2.8940419721        0.2570529517
 H          5.7815176668       -1.5815556255        1.3544639363
 H          5.1584582767       -1.8081059275       -1.6169170403
 H          6.1499029441       -0.5944832611       -0.7864312826
 O          4.3559550008        0.7771263797        0.1723784040
 C          3.3605417021        1.6745809392        0.5217459526
 O          3.7519389290        2.6435295233        1.2026757788
 H         -1.7139025928        2.6211173471       -0.1432399447
 C         -1.5044548578        1.8951737842        0.6273339116
 C         -0.2040433245        1.6832751461        1.0589289167
 C          0.0147314460        0.7373165886        2.0578715480
 C         -1.0275842050       -0.0040571955        2.5790689054
 C         -2.3175863254        0.1804028900        2.1112812046
 C         -2.5499718245        1.1396072236        1.1375432802
 N         -3.8764303448        1.2839085429        0.6368994599
 S         -4.1114862723        0.3738089458       -0.7703622402
 O         -3.2853889018        0.8747784704       -1.8486024052
 O         -5.5357381625        0.4139682114       -1.0277232497
 C         -3.6181842699       -1.2634990113       -0.2903236409
 C         -2.3039874317       -1.6552799844       -0.4541767735
 C         -1.9393753506       -2.9296715661       -0.0477056839
 C         -2.8812055464       -3.7787133046        0.5125508834
 C         -4.1958538581       -3.3660265913        0.6707015411
 C         -4.5703236838       -2.0949378067        0.2670480672
 H         -5.5794402955       -1.7290720665        0.3638411307
 H         -4.9261381516       -4.0287128827        1.1065029377
 H         -2.5871340471       -4.7679100891        0.8267234952
 H         -0.9156856248       -3.2462486290       -0.1703339999
 H         -1.5857237392       -0.9722967924       -0.8822139949
 H         -4.0959735992        2.2454298495        0.4071702371
 H         -3.1398967971       -0.4044504115        2.4897797995
 H         -0.8341769904       -0.7396468621        3.3446806248
 H          1.0265774897        0.5785125489        2.4066399557
 C          0.9772393320        2.4151649840        0.4722719542
 H          1.4115495175        3.0647753690        1.2462122313
 C          0.6230343505        3.2649270127       -0.7313323572
 C          0.1391311537        4.6717418707       -0.5496057975
 C          1.5125437741        4.4149348697       -1.0914084271
 H          1.7019089775        4.6130787362       -2.1358195659
 H          2.3619405554        4.6006124056       -0.4502683632
 H          0.0552378273        5.0463170419        0.4595125153
 H         -0.6145247590        5.0491701856       -1.2250044522
 H          0.2056996328        2.6820381143       -1.5462340050
 O          0.5628114201        0.0531688839       -1.1142017468
