  62
        -98.92829200
 C         -2.2171726915       -1.0783971752       -0.5058146750
 C         -3.3239510240       -0.9874923288        0.3753743001
 C         -4.1688562387        0.2165278921        0.2803704279
 C         -3.8673058164        1.1486364066       -0.6407188810
 C         -4.5647521843        2.4529713667       -0.9330597078
 C         -6.1001734097        2.4178530564       -0.9762738469
 C         -6.7587702881        3.1290965847        0.2070307084
 H         -6.1895095698        4.0340034127        0.4294246343
 H         -7.7633443972        3.4405265550       -0.0877352309
 C         -6.8899194636        2.2903231016        1.4770867633
 H         -7.2415513914        2.9500943093        2.2737274901
 H         -7.6553369744        1.5257352921        1.3276622199
 C         -5.6053109238        1.6017443900        1.9427327151
 H         -4.7506845503        2.2673036986        1.8268459307
 H         -5.7054130105        1.3957809811        3.0105072904
 C         -5.3307253991        0.2666039231        1.2346165821
 H         -6.2305705545       -0.0706506132        0.7119592286
 H         -5.1094598685       -0.5052689929        1.9782100062
 H         -6.4185647927        2.9210264283       -1.8907097191
 H         -6.4457689035        1.3871286296       -1.0388179543
 H         -4.2314364018        3.1947066223       -0.2029774189
 H         -4.1732396931        2.7720655389       -1.9016498873
 O         -2.7926183203        1.0224797235       -1.4688889302
 C         -1.9388019458       -0.0691438187       -1.4263498437
 O         -1.0037931465        0.0012912808       -2.2468420334
 O         -3.6006109588       -1.8876344124        1.2132674241
 C         -1.3632256049       -2.3298684996       -0.3997152329
 C         -0.1587919100       -2.1029439079        0.4772658089
 C          0.1186030915       -2.9453572275        1.5468449385
 C          1.2381010085       -2.7385942389        2.3348729589
 C          2.1032537637       -1.6914631303        2.0727754068
 C          1.8340062460       -0.8441838426        1.0058207566
 C          0.7099307726       -1.0509478120        0.2201144360
 H          0.5075853111       -0.3923492974       -0.6124489768
 N          2.7104877256        0.2326904471        0.7248051430
 S          4.2512442790       -0.2370549980        0.2019340684
 O          4.1582352599       -0.9139467149       -1.0743849454
 O          4.8876743822       -0.9743006467        1.2627473692
 C          5.0376204074        1.3484519931        0.0047813836
 C          5.0220777768        1.9612764080       -1.2331830449
 C          5.6117323686        3.2080749544       -1.3709453857
 C          6.2000318212        3.8182036511       -0.2734376565
 C          6.2062058192        3.1904741190        0.9632853864
 C          5.6188929319        1.9437823452        1.1075217983
 H          5.6068753894        1.4145018623        2.0457441611
 H          6.6658985484        3.6678631910        1.8135055730
 H          6.6579537128        4.7884346096       -0.3840883221
 H          5.6092687894        3.6971504849       -2.3318094087
 H          4.5616143332        1.4469557683       -2.0619506125
 H          2.3150163352        0.8257599669        0.0045316897
 H          2.9872516086       -1.5309307855        2.6672431752
 H          1.4399363992       -3.4005995154        3.1633084010
 H         -0.5549971220       -3.7616950234        1.7638530025
 H         -2.0089032577       -3.0613312679        0.1112549802
 C         -1.0031519562       -2.9190238784       -1.7578588752
 C          0.3820771992       -2.9461084623       -2.3245803325
 C         -0.2497189185       -4.2138604275       -1.8382498258
 H         -0.5597771283       -4.9521829890       -2.5619329754
 H          0.1214596617       -4.6285639968       -0.9129015533
 H          0.4870823957       -2.7905606396       -3.3877740187
 H          1.1925536439       -2.5237683824       -1.7501312506
 H         -1.8041977509       -2.7812313904       -2.4777618274
