  62
        -98.94448053
 C          1.4547870133        1.1082220764       -0.4858316855
 C          2.8128120495        1.4547834651       -0.2895724249
 C          3.7876774021        0.3774571931       -0.5067317970
 C          3.3503519088       -0.8416029683       -0.8723896040
 C          4.2276182236       -2.0437375956       -1.0670216983
 C          4.3607639883       -2.8489935332        0.2331309025
 C          4.7225467265       -1.9990101526        1.4510817376
 H          3.8938584984       -1.3224906774        1.6724218315
 H          4.8213462512       -2.6754931866        2.3027750649
 C          6.0135247286       -1.1832087765        1.2948875182
 H          6.6114548726       -1.5875429295        0.4773019183
 H          6.6042404370       -1.2833208976        2.2079772323
 C          5.7942758803        0.3139082426        1.0688208871
 H          5.1199926146        0.7052886662        1.8348051625
 H          6.7554065955        0.8207561126        1.1901466332
 C          5.2403772210        0.7070009177       -0.3066497386
 H          5.3162560053        1.7946776318       -0.3964315179
 H          5.8502679667        0.2552766155       -1.0916933255
 H          5.1202885817       -3.6190313091        0.0861044106
 H          3.4076470284       -3.3436631724        0.4327156824
 H          3.7769827974       -2.6778358102       -1.8321459750
 H          5.2088451985       -1.7204265051       -1.4089904839
 O          2.0386926801       -1.1341350065       -1.0604143669
 C          1.0551574165       -0.1740738470       -0.8641413697
 O         -0.1034786053       -0.5805583852       -1.0595684223
 H         -2.2801165045        1.3991481574       -0.3361246086
 C         -1.8395451983        1.3392448615        0.6440197019
 C         -0.5200036005        1.7054873028        0.8534299291
 C          0.0041911880        1.6129582696        2.1412690131
 C         -0.7736748740        1.1663628196        3.1910676498
 C         -2.0886764358        0.7903255101        2.9765348940
 C         -2.6200268417        0.8770994116        1.6956859618
 N         -3.9541030686        0.5188865136        1.4554931707
 S         -4.4204833415       -0.2044289369        0.0272984306
 O         -4.4367348134        0.7621541896       -1.0424159175
 O         -5.7052584729       -0.7963483676        0.3448395847
 C         -3.2563603882       -1.5091083955       -0.3236162685
 C         -2.7798914379       -2.2891454134        0.7099077569
 C         -1.9228468776       -3.3364783040        0.4168551736
 C         -1.5677485053       -3.5928438906       -0.8975049553
 C         -2.0609066673       -2.8052838845       -1.9239142038
 C         -2.9114665699       -1.7515240960       -1.6358515620
 H         -3.3019155032       -1.1031411445       -2.4040611301
 H         -1.7751629412       -2.9988805727       -2.9455759705
 H         -0.8943187089       -4.4051732088       -1.1226707289
 H         -1.5298258863       -3.9461362273        1.2152169371
 H         -3.0684996486       -2.0738096236        1.7261478414
 H         -4.4456093055        0.1306234557        2.2468866430
 H         -2.6997170874        0.4377815811        3.7935741914
 H         -0.3545030553        1.1040911522        4.1839698990
 H          1.0352201437        1.8963104947        2.3039376219
 C          0.3866488868        2.1644797822       -0.2604402323
 H          0.9262144938        3.0600421231        0.0794191569
 C         -0.3405748309        2.4938161535       -1.5459734086
 C         -1.0943940249        3.7837826124       -1.6611940403
 C          0.1804409004        3.5893252766       -2.4246905657
 H          0.1271383107        3.4606251686       -3.4953939313
 H          1.0617389238        4.1181223390       -2.0919976934
 H         -1.0794917341        4.4467572267       -0.8092394565
 H         -2.0283631783        3.7869363780       -2.2027195769
 H         -0.7549864702        1.6197116739       -2.0356538249
 O          3.1913746968        2.6073683032        0.0535450261
