  62
        -98.93511326
 C          2.3587793402        1.1441196836        0.4341965318
 C          2.4940562466        0.0716813927       -0.4794764544
 C          3.5142353681       -0.9341160071       -0.1437140115
 C          4.2341787651       -0.8103217718        0.9849872353
 C          5.2672490572       -1.7730511007        1.5080266351
 C          6.5410874825       -1.9377926267        0.6568471987
 C          6.4925245616       -3.1068930971       -0.3346603748
 H          7.4686694334       -3.5959713880       -0.3484571130
 H          5.7774950444       -3.8459532702        0.0288069103
 C          6.1567472890       -2.7400449899       -1.7834071242
 H          7.0445257199       -2.3171311536       -2.2592535671
 H          5.9084550921       -3.6623447777       -2.3131000442
 C          5.0167000157       -1.7389657427       -1.9712129683
 H          4.7535978628       -1.7167915767       -3.0307255410
 H          5.3651505623       -0.7344618060       -1.7194614942
 C          3.7561800943       -2.0349318822       -1.1354927969
 H          2.8786452445       -2.0694106987       -1.7841592444
 H          3.8466806202       -2.9944105216       -0.6286130309
 H          6.7544815342       -1.0044503053        0.1365618360
 H          7.3635645354       -2.1154091666        1.3515156468
 H          5.5443440310       -1.3926390318        2.4932799898
 H          4.7967288744       -2.7489799343        1.6476844932
 O          4.0661518590        0.2327055970        1.8430880631
 C          3.1398826916        1.2273817865        1.5909494316
 O          3.1043302766        2.1233618778        2.4578132690
 H         -0.3975679398        0.9094506030       -1.3905939178
 C         -0.7944688632        1.0491680148       -0.3972379222
 C         -0.0375089767        1.7155730553        0.5545101073
 C         -0.5553108861        1.8557362875        1.8384195785
 C         -1.7975626385        1.3391701494        2.1577068828
 C         -2.5453685149        0.6650116601        1.2081234767
 C         -2.0360113329        0.5160773232       -0.0747431663
 N         -2.7678888578       -0.1966251395       -1.0366307338
 S         -4.4058673091        0.0964811419       -1.2188523826
 O         -4.7156682187       -0.3070331510       -2.5730144301
 O         -4.7463727615        1.4536608592       -0.8596422063
 C         -5.1713279385       -1.0451102704       -0.0862635002
 C         -4.8545396417       -2.3845387376       -0.2004370555
 C         -5.4455401395       -3.2886449338        0.6674384683
 C         -6.3407369236       -2.8412590519        1.6278258088
 C         -6.6514124444       -1.4938273510        1.7273222442
 C         -6.0630287076       -0.5842406932        0.8622535076
 H         -6.2714235008        0.4730398900        0.9058634259
 H         -7.3477226845       -1.1481969040        2.4744417513
 H         -6.7986200155       -3.5472460276        2.3025866232
 H         -5.2061274238       -4.3372772852        0.5928233460
 H         -4.1564599449       -2.6921999143       -0.9612009987
 H         -2.2991615721       -0.2821780452       -1.9263825964
 H         -3.5126732601        0.2570941654        1.4517430823
 H         -2.1871746006        1.4585250282        3.1572848716
 H          0.0349422473        2.3654606689        2.5870059076
 C          1.3374224594        2.2549756815        0.2391476768
 H          1.5785964595        3.0148162203        0.9942042935
 C          1.4260203602        2.8952030749       -1.1313110098
 C          0.7368648895        4.2047231386       -1.3655323604
 C          2.2330766137        4.1449695487       -1.3049484073
 H          2.7923789994        4.2739326182       -2.2195350976
 H          2.7251624309        4.5489312656       -0.4320977538
 H          0.2120157615        4.6471677329       -0.5320990487
 H          0.2656402002        4.3771526496       -2.3212263266
 H          1.4443106493        2.1818838715       -1.9447750585
 O          1.8075818109       -0.0619292182       -1.5270667825
