  62
        -98.94582101
 C          2.1379076889        1.4837373888        0.0108781077
 C          1.8478093522        0.3415471313       -0.7740233178
 C          2.9206362694       -0.6577854077       -0.8555533462
 C          4.0991579982       -0.4287240587       -0.2485165634
 C          5.2986572836       -1.3370510235       -0.2739555795
 C          5.2617694007       -2.4528788219        0.7793902999
 C          4.2567408720       -3.5726976907        0.5064842280
 H          4.4057579647       -3.9542886912       -0.5040455302
 H          4.4878084873       -4.3850170494        1.1984584995
 C          2.7891003222       -3.1639620752        0.6958044073
 H          2.7409435070       -2.2399377640        1.2764786960
 H          2.2693235198       -3.9305651227        1.2744684347
 C          2.0087243989       -2.9708220672       -0.6045275323
 H          1.0026353939       -2.6300527045       -0.3481629439
 H          1.9252614459       -3.9267762992       -1.1260959416
 C          2.6249844123       -1.9446333745       -1.5640890571
 H          3.5284587743       -2.3476332165       -2.0210266660
 H          1.8995353910       -1.7290776083       -2.3521039404
 H          5.0533255418       -2.0058205506        1.7542464522
 H          6.2611859047       -2.8920827533        0.8230189078
 H          6.1692356568       -0.7075070648       -0.0771807062
 H          5.4052708185       -1.7754622282       -1.2666357143
 O          4.3498639131        0.7028970433        0.4637240976
 C          3.3696595661        1.6665978065        0.6386461200
 O          3.7124501869        2.6259688276        1.3596172762
 O          0.7589263707        0.1643861347       -1.3776091238
 C          1.0802853851        2.5574776957        0.1979575870
 C         -0.1707610250        1.9223101752        0.7531839832
 C         -0.0841834660        1.2178626389        1.9517775007
 C         -1.1916213309        0.5875571185        2.4847554109
 C         -2.4106842101        0.6371300858        1.8303141105
 C         -2.5057052243        1.3320082369        0.6328983797
 C         -1.3938669873        1.9791627326        0.1068493090
 H         -1.4887242446        2.5143338823       -0.8245943952
 N         -3.7319611935        1.3746515636       -0.0486373469
 S         -4.6633433614       -0.0118963981       -0.1109214388
 O         -5.4509740217        0.1221787286       -1.3168970209
 O         -5.4159149796       -0.1423736751        1.1129666202
 C         -3.5264751188       -1.3796233469       -0.2627138531
 C         -2.5910637006       -1.3575435507       -1.2776922158
 C         -1.7182761955       -2.4248518430       -1.4076240085
 C         -1.7964063177       -3.4927363660       -0.5268935432
 C         -2.7424017046       -3.5012126077        0.4863293625
 C         -3.6164912092       -2.4349696850        0.6223622377
 H         -4.3647574471       -2.3986404210        1.3976922577
 H         -2.7997321069       -4.3326596966        1.1703769893
 H         -1.1140161777       -4.3217265708       -0.6312689680
 H         -0.9737970061       -2.4071868979       -2.1870388741
 H         -2.5410232716       -0.5165594505       -1.9497771009
 H         -3.6897351204        1.8309036172       -0.9479124523
 H         -3.2856203017        0.1528361630        2.2325929494
 H         -1.1073625884        0.0476843406        3.4157450796
 H          0.8714217721        1.1677370155        2.4565959424
 H          1.4776514475        3.2530865780        0.9505559843
 C          0.8695738327        3.3115803083       -1.0982315360
 C          0.3296507718        4.7093284092       -1.0768790530
 C          1.7685747804        4.4661897653       -1.4180353785
 H          2.0877525140        4.6036398872       -2.4403559550
 H          2.5220368862        4.7250405450       -0.6884067731
 H         -0.3373998403        5.0194830273       -1.8672813188
 H          0.1030614365        5.1426257525       -0.1144688980
 H          0.5846455352        2.6633707640       -1.9191285296
