  62
        -98.93530959
 C          0.9216511230        1.3274024355       -0.8395804572
 C          2.1189981455        1.6104785162       -0.1405535456
 C          3.1388411161        0.5482770723       -0.0841381632
 C          2.8640187292       -0.6440504382       -0.6416557992
 C          3.7302364333       -1.8765689942       -0.7164178142
 C          4.4857819758       -2.2672744429        0.5627585499
 C          5.9964464044       -2.0435024397        0.4701570386
 H          6.4915215530       -2.7089054609        1.1809325485
 H          6.3285021856       -2.3297191560       -0.5299887474
 C          6.4630860311       -0.6198747224        0.7687320670
 H          6.3556594281       -0.4215170099        1.8373917482
 H          7.5285605006       -0.5654515630        0.5331911397
 C          5.7335899038        0.4824097829       -0.0015406182
 H          6.3852575999        1.3583262135       -0.0279585789
 H          5.5651951106        0.1792033556       -1.0342576103
 C          4.4056860398        0.9079595319        0.6429902125
 H          4.3450158903        0.5238042587        1.6657805830
 H          4.3718909381        1.9985639631        0.7313102386
 H          4.0704873314       -1.7313001975        1.4153242572
 H          4.3130679071       -3.3304299968        0.7394063724
 H          3.0510328250       -2.6821055475       -1.0047204117
 H          4.4370307845       -1.7539048806       -1.5413255274
 O          1.6879326789       -0.8855661281       -1.2836471689
 C          0.6894896526        0.0723018663       -1.4028512275
 O         -0.3088943086       -0.3269072642       -2.0267487978
 O          2.3376132686        2.7260997643        0.4085511925
 C         -0.1201393997        2.4320907114       -0.8813515237
 C         -1.0149335824        2.3379098644        0.3280203154
 C         -1.2889094737        3.4477964203        1.1179844398
 C         -2.0883732082        3.3273498248        2.2415215745
 C         -2.6161810783        2.1011514136        2.6039265973
 C         -2.3486005856        0.9852368633        1.8178866666
 C         -1.5671770546        1.1147540473        0.6804485030
 H         -1.3601474683        0.2463146146        0.0768234866
 N         -2.8806019997       -0.2701676313        2.1362770975
 S         -2.0996731738       -1.6733645607        1.6682607012
 O         -2.6953174709       -2.6981594534        2.5034740747
 O         -0.6625566784       -1.5514830027        1.7706879257
 C         -2.6107541079       -1.9458151033       -0.0134817598
 C         -3.8351187708       -1.4704300018       -0.4385396635
 C         -4.2350065853       -1.7264794621       -1.7395324820
 C         -3.4144111137       -2.4571129532       -2.5846841493
 C         -2.1924920716       -2.9336661769       -2.1397651175
 C         -1.7834938983       -2.6751517457       -0.8419145276
 H         -0.8287901924       -3.0075186643       -0.4648674973
 H         -1.5482541883       -3.4920596817       -2.7996382857
 H         -3.7254394242       -2.6515644227       -3.5991178444
 H         -5.1825164298       -1.3510354695       -2.0915768148
 H         -4.4466332878       -0.9011227607        0.2418866719
 H         -3.3255231637       -0.3489722386        3.0383548177
 H         -3.2249514268        2.0035459019        3.4896169530
 H         -2.2921893476        4.1950138139        2.8503979568
 H         -0.8546656419        4.4022159276        0.8592691969
 H          0.4536339482        3.3688273747       -0.7938647179
 C         -0.8949210078        2.4923143850       -2.1892555026
 C         -2.3087632244        2.0248319758       -2.3359133320
 C         -2.0019324837        3.4904000999       -2.3615423874
 H         -2.0777765341        4.0211214888       -3.2983505249
 H         -2.2825739937        4.0733750629       -1.4973415635
 H         -2.5740311227        1.5276647112       -3.2558837736
 H         -2.8038949018        1.6175110052       -1.4686807331
 H         -0.2470383706        2.3295314300       -3.0446287161
