  62
        -98.93853812
 C          2.2983047023        0.7719897373       -0.4261368779
 C          1.5165033085       -0.2422606871       -1.0355443736
 C          1.9213292831       -1.6330097456       -0.7741248071
 C          2.9748137302       -1.8856439354        0.0190828512
 C          3.4579370692       -3.2507826438        0.4114697155
 C          2.8049546265       -3.7214005423        1.7182293393
 C          1.2831734024       -3.5717825319        1.7450146809
 H          0.9342026182       -3.9811424632        2.6961335826
 H          1.0183372326       -2.5110337645        1.7435262705
 C          0.5522981332       -4.2705621507        0.5900877255
 H          1.2032213179       -5.0188626009        0.1351039396
 H         -0.3153327587       -4.7954734517        0.9955971823
 C          0.0319837845       -3.3168488421       -0.4869995487
 H         -0.5102889079       -2.4994183242       -0.0045801940
 H         -0.6791606403       -3.8624656349       -1.1134879293
 C          1.1000422080       -2.7184399206       -1.4121188397
 H          1.7439524728       -3.5133402699       -1.7945809921
 H          0.5872893158       -2.2547852592       -2.2595281935
 H          3.0703401368       -4.7685017049        1.8774593380
 H          3.2190569550       -3.1366814121        2.5431137096
 H          3.2370599403       -3.9530760216       -0.3901012322
 H          4.5391822879       -3.2036832546        0.5537923376
 O          3.7068048965       -0.8973410725        0.5914609278
 C          3.3804003539        0.4308232456        0.3999667189
 O          4.1343376383        1.2179275009        1.0112249070
 O          0.5191515265       -0.0417129268       -1.7774398225
 C          2.0608575454        2.2752375024       -0.5028378111
 C          0.8774459980        2.7336158925        0.3230193408
 C          0.9830596275        3.8909659090        1.0888231992
 C         -0.0715136361        4.3139924788        1.8764781406
 C         -1.2375323489        3.5727089021        1.9445732299
 C         -1.3556111602        2.4162701973        1.1819131854
 C         -0.3148473494        2.0277780338        0.3508607652
 H         -0.4306061505        1.1457603041       -0.2507500542
 N         -2.5236575570        1.6414760620        1.2374116922
 S         -2.4911912560       -0.0404422766        1.3180329777
 O         -3.3551447569       -0.3787962184        2.4336190869
 O         -1.1421618991       -0.5423573680        1.3887970355
 C         -3.3125147803       -0.5325747766       -0.1852277495
 C         -4.6801512691       -0.7278205360       -0.1298738100
 C         -5.3588850758       -1.0848143530       -1.2828286080
 C         -4.6620536783       -1.2394753338       -2.4718322444
 C         -3.2913614411       -1.0400360829       -2.5111930443
 C         -2.6049393487       -0.6812677141       -1.3604374266
 H         -1.5377235394       -0.5239916871       -1.3788398584
 H         -2.7441069629       -1.1578894414       -3.4329698996
 H         -5.1884090654       -1.5174456001       -3.3714552698
 H         -6.4251993784       -1.2410621269       -1.2512785360
 H         -5.1788656273       -0.6090789166        0.8179871525
 H         -3.2169842007        1.9970590466        1.8799058699
 H         -2.0492605113        3.8827707943        2.5857000504
 H          0.0231419719        5.2149940627        2.4637536538
 H          1.9075622302        4.4503155089        1.0754287189
 H          2.9536042240        2.6902457937       -0.0086980041
 C          2.0263593451        2.9486640033       -1.8736133792
 C          2.5339875622        2.2969592199       -3.1221810971
 C          1.0754240957        2.6133694231       -2.9793570592
 H          0.6661151471        3.4293356497       -3.5571253250
 H          0.4032867114        1.7854717332       -2.8304559227
 H          3.1375974784        2.8808025489       -3.8015648868
 H          2.8262511010        1.2587799910       -3.0573888638
 H          2.2554487889        4.0062881778       -1.7717222399
