  62
        -98.94457160
 C         -1.7187752139       -1.0797294403       -0.0038347750
 C         -2.9321208820       -1.0783526628        0.7360955043
 C         -4.1004999355       -0.4878981062        0.0766424078
 C         -3.9864504777       -0.0123996872       -1.1762625505
 C         -5.0903765425        0.5910169131       -2.0011927378
 C         -5.3347506386        2.0805274736       -1.7233165303
 C         -6.0081266064        2.3903232163       -0.3857466228
 H         -6.3151118145        3.4376634926       -0.4168385823
 H         -6.9126432367        1.7892042331       -0.2878274176
 C         -5.1096692273        2.1762116863        0.8405843689
 H         -5.2005917476        3.0326733813        1.5125186165
 H         -4.0648375516        2.1298229806        0.5241505700
 C         -5.4357323776        0.9246954605        1.6559610644
 H         -4.7155781660        0.8536172681        2.4751439776
 H         -6.4327963297        1.0209545160        2.0913525704
 C         -5.3757199251       -0.3837909448        0.8569438366
 H         -5.4035321000       -1.2178652846        1.5623025883
 H         -6.2361579230       -0.4584757457        0.1922193417
 H         -4.3800716197        2.6087256868       -1.7813140616
 H         -5.9735132464        2.4608846327       -2.5238451779
 H         -6.0138503217        0.0339276280       -1.8407359544
 H         -4.7940679347        0.4799849992       -3.0465393766
 O         -2.8152689995       -0.0481179858       -1.8611620560
 C         -1.6530478105       -0.5540598338       -1.2941485928
 O         -0.6630086236       -0.4670140148       -2.0496143799
 O         -3.0329245702       -1.5611440397        1.8950891661
 C         -0.5126479485       -1.6964603531        0.6834887233
 C          0.4074227002       -0.6593468142        1.2807752625
 C          0.7794955631       -0.7144581882        2.6187218114
 C          1.6638019737        0.2114154059        3.1459731126
 C          2.1921323234        1.2137683815        2.3516887366
 C          1.8175684544        1.2814156404        1.0168592448
 C          0.9403115797        0.3471150073        0.4881519159
 H          0.6682005370        0.3999367684       -0.5556136769
 N          2.3669715507        2.2902692925        0.1889679899
 S          3.9938436010        2.0647740189       -0.1552487808
 O          4.7556611624        2.2932923256        1.0460555227
 O          4.2885324612        2.9303523296       -1.2744491961
 C          4.1050165856        0.3519366811       -0.6376058533
 C          4.3756158556       -0.6040719687        0.3204856876
 C          4.3680707694       -1.9393452231       -0.0480760490
 C          4.0869723169       -2.2925143076       -1.3588087644
 C          3.8136009226       -1.3204052530       -2.3084547945
 C          3.8163090779        0.0161595987       -1.9449065908
 H          3.6091109443        0.8017123359       -2.6542660235
 H          3.5893573211       -1.5981813019       -3.3259901669
 H          4.0814801615       -3.3325085444       -1.6459862705
 H          4.5753079685       -2.6982860139        0.6889347797
 H          4.5900184252       -0.2869544840        1.3277767288
 H          1.8657339334        2.3788169219       -0.6849868262
 H          2.8948681954        1.9343017046        2.7376517407
 H          1.9444181169        0.1529839435        4.1864921106
 H          0.3649362858       -1.4864517368        3.2500294214
 H         -0.9312149842       -2.2881367869        1.5086921740
 C          0.2849401376       -2.6234945566       -0.2150122905
 C          1.0573198607       -3.7478292382        0.4033740300
 C         -0.1749098529       -4.0370670545       -0.3990991679
 H         -0.0670872934       -4.4894155385       -1.3732645143
 H         -1.0680033228       -4.3434151019        0.1261889227
 H          2.0161096142       -4.0036708571       -0.0181261635
 H          1.0003864389       -3.8641153820        1.4747852242
 H          0.7177308945       -2.1232058168       -1.0718400771
