  62
        -98.93398741
 C          1.9549373138        1.1194120459       -0.2337158690
 C          2.4478372421        0.3844984140        0.8748452300
 C          2.7116896415       -1.0442326298        0.6633438000
 C          2.4392025773       -1.5828427127       -0.5384729413
 C          2.6972412191       -3.0086370329       -0.9369566836
 C          4.1985214855       -3.2177777990       -1.2210564982
 C          4.8984768113       -4.1640697067       -0.2454050324
 H          4.6198996923       -5.1917524062       -0.4872952794
 H          5.9735593742       -4.0656698911       -0.4092707174
 C          4.5965886076       -3.9334777639        1.2382690342
 H          5.3463445854       -4.4888330530        1.8056377564
 H          3.6288887666       -4.3709064984        1.4880952684
 C          4.6078443675       -2.4720989490        1.7048964555
 H          5.2203792687       -1.8607954002        1.0420632955
 H          5.0714370406       -2.4342150916        2.6926816794
 C          3.2137200202       -1.8320361848        1.8420536557
 H          2.4796974309       -2.6005438078        2.1013715494
 H          3.2376024635       -1.1122687001        2.6657864223
 H          4.3253028386       -3.6112529060       -2.2307064343
 H          4.6882519578       -2.2420336473       -1.2002284359
 H          2.3577161402       -3.6742929629       -0.1462175293
 H          2.1068874624       -3.2042298191       -1.8326793466
 O          1.9597065046       -0.8537608192       -1.5770856880
 C          1.6845418652        0.5026393563       -1.4553419205
 O          1.2306556046        1.0074427162       -2.5015358814
 H         -0.6287048793        1.2896878801       -0.7855524923
 C         -0.8079555741        1.9440650059        0.0546235463
 C          0.2261364439        2.6974899397        0.5890159100
 C         -0.0487910175        3.5437766057        1.6571190313
 C         -1.3242347584        3.6166271638        2.1876561705
 C         -2.3412969982        2.8262145680        1.6839352747
 C         -2.0773704736        1.9820096388        0.6113250521
 N         -3.0763031579        1.1552568164        0.0731204883
 S         -2.6158148743       -0.3949155739       -0.4264442227
 O         -1.5947040716       -0.9174943604        0.4536691622
 O         -2.3054340854       -0.3566594776       -1.8332405448
 C         -4.1471244460       -1.2785624962       -0.1819880426
 C         -4.3511900802       -1.9561314669        1.0053012844
 C         -5.5572779198       -2.6090869915        1.2062407191
 C         -6.5348298363       -2.5709216083        0.2232483799
 C         -6.3150624939       -1.8880849549       -0.9639233091
 C         -5.1111001502       -1.2336280126       -1.1715271704
 H         -4.8898041305       -0.6977865292       -2.0799082487
 H         -7.0756103006       -1.8632394139       -1.7274340482
 H         -7.4725273871       -3.0794141535        0.3821571449
 H         -5.7286636013       -3.1437529585        2.1265393095
 H         -3.5580270736       -1.9646775175        1.7358197730
 H         -3.9181508429        1.1353530004        0.6328715263
 H         -3.3296982538        2.8579833157        2.1164142241
 H         -1.5233159545        4.2766937370        3.0180455781
 H          0.7502152244        4.1299632861        2.0855406844
 C          1.6273464431        2.5779218771        0.0325553551
 H          2.3216560272        2.8967429399        0.8233576898
 C          1.8004416218        3.5009664671       -1.1563838772
 C          2.1014214539        4.9502425817       -0.9227693836
 C          3.1595203156        4.0445517429       -1.4757388640
 H          3.4406902177        4.1421368012       -2.5132260299
 H          3.9749110415        3.7574604164       -0.8278058697
 H          2.2073388336        5.2842949874        0.0978926040
 H          1.6526753163        5.6783458325       -1.5805047455
 H          1.1591355653        3.2465156303       -1.9902207369
 O          2.6630297235        0.9129969829        2.0005320799
