  62
        -98.93798731
 C         -1.6353999259       -1.5414417071       -0.0423873231
 C         -2.2475267231       -0.7021481597        0.9244881887
 C         -3.1344017115        0.3668847553        0.4301189637
 C         -3.3405319221        0.4713491275       -0.8951803605
 C         -4.2039063339        1.4781216605       -1.6044015398
 C         -3.5175360413        2.8518199340       -1.7554588340
 C         -2.5893102192        3.2395807479       -0.6049029932
 H         -1.8867285346        2.4224407282       -0.4323920888
 H         -1.9992708420        4.1031460911       -0.9234561548
 C         -3.2867177547        3.6104853027        0.7034350331
 H         -3.8081940444        4.5605080317        0.5627015757
 H         -2.5143297998        3.7666585371        1.4606915621
 C         -4.3018827510        2.6001868141        1.2352132089
 H         -4.6717778616        2.9838752952        2.1907578098
 H         -5.1589669178        2.5507651670        0.5687617147
 C         -3.7598371626        1.2003442304        1.5209669656
 H         -3.0004515579        1.2645678834        2.3079487125
 H         -4.5729204028        0.5997315616        1.9472774793
 H         -4.2842184405        3.6168559616       -1.8843938749
 H         -2.9131670715        2.8256573400       -2.6651498193
 H         -4.4078999851        1.0784374880       -2.5998890297
 H         -5.1529176903        1.5651780075       -1.0818762795
 O         -2.7159308352       -0.3373476721       -1.7922921126
 C         -1.8391080179       -1.3386067342       -1.4066402835
 O         -1.3248096057       -1.9398663515       -2.3727125197
 H          0.7188940526       -1.4936858193       -1.4686262112
 C          1.2892886890       -1.5970071101       -0.5570235067
 C          0.7044309430       -2.1912545168        0.5512007331
 C          1.4593415129       -2.3212770480        1.7105711314
 C          2.7671615533       -1.8691431021        1.7561630640
 C          3.3379053600       -1.2527246177        0.6571891589
 C          2.5853467909       -1.1081919768       -0.5011668875
 N          3.1239152325       -0.3920753737       -1.5887533842
 S          3.6458487517        1.1592007753       -1.2063887592
 O          3.3108597892        1.9808457000       -2.3489282346
 O          5.0457158897        1.1120826830       -0.8628637967
 C          2.7049870483        1.6443588432        0.2345745491
 C          3.3764675363        1.9918348339        1.3891726971
 C          2.6458887583        2.3106811393        2.5224088793
 C          1.2615424150        2.2597292261        2.4866716819
 C          0.6007756784        1.9121737134        1.3187454241
 C          1.3250894738        1.6093973976        0.1776708899
 H          0.8302715652        1.3395630346       -0.7430629837
 H         -0.4761828466        1.8557637115        1.2988684314
 H          0.6889285105        2.4859255683        3.3721140461
 H          3.1568626147        2.5850503664        3.4310392523
 H          4.4541965799        1.9967685096        1.3771830622
 H          2.5027489967       -0.3642998958       -2.3854725261
 H          4.3443523447       -0.8662197899        0.6791421158
 H          3.3425388310       -1.9810285634        2.6618876992
 H          1.0093064243       -2.7632687962        2.5866149972
 C         -0.7357974201       -2.6424303398        0.4952417916
 H         -1.0703402494       -2.8109181217        1.5276420516
 C         -0.8477557764       -3.9494654040       -0.2649082492
 C         -0.4977146024       -5.2298183025        0.4294191844
 C         -1.9270281236       -4.9221910028        0.0996756046
 H         -2.4089663996       -5.4753314539       -0.6923645661
 H         -2.5903768797       -4.6525255611        0.9085906437
 H          0.0067942338       -5.9987403961       -0.1350646864
 H         -0.1945464105       -5.1734932917        1.4636691311
 H         -0.5940931538       -3.8590209091       -1.3132018479
 O         -2.0609036595       -0.8422156177        2.1618331282
