  62
        -98.94364232
 C          1.7469250293        0.4678149195        0.5031260058
 C          2.9494739483        0.4713220374        1.2485905278
 C          4.1815753298        0.6868537032        0.4784785484
 C          4.1006650642        0.8749224344       -0.8517055110
 C          5.2789447980        1.0499133789       -1.7646947835
 C          5.7547079488       -0.2990734465       -2.3218519757
 C          5.9435912323       -1.3762198204       -1.2537136378
 H          4.9710650431       -1.6247779883       -0.8225683124
 H          6.3097169847       -2.2735014052       -1.7574000499
 C          6.9130599733       -0.9905802156       -0.1276879900
 H          7.5785130726       -1.8345839963        0.0659951172
 H          7.5359988946       -0.1536898604       -0.4453744302
 C          6.2371834489       -0.6430766727        1.2000604958
 H          7.0088462954       -0.6001714865        1.9733931330
 H          5.5421520220       -1.4399449274        1.4770181078
 C          5.4801502902        0.6906462872        1.2351650624
 H          5.2186536278        0.8960967871        2.2774249131
 H          6.1310550024        1.4923014934        0.8804255394
 H          6.6956453264       -0.1412344977       -2.8520427092
 H          5.0145661273       -0.6570336203       -3.0411889108
 H          6.0863111938        1.5346616021       -1.2193121548
 H          4.9778404904        1.6899585285       -2.5955818279
 O          2.9254813626        0.8794492488       -1.5306807106
 C          1.7201538827        0.6664279508       -0.8774537330
 O          0.7222523358        0.6817933399       -1.6213302944
 O          2.9905966253        0.2977639357        2.4969415125
 C          0.4328473468        0.2382714360        1.2269641344
 C         -0.2640506403       -0.9760189894        0.6656406461
 C          0.4574215902       -2.1579033317        0.5133353984
 C         -0.1391457245       -3.2871691857       -0.0110800577
 C         -1.4712263528       -3.2665571461       -0.3866878623
 C         -2.2035154427       -2.0966945401       -0.2301239310
 C         -1.5993456213       -0.9626681585        0.2971008501
 H         -2.1849388426       -0.0674560889        0.4165692122
 N         -3.5437971249       -2.0362851183       -0.6301963019
 S         -4.6525434981       -1.0836574117        0.1731867284
 O         -4.4306332633       -1.0911176073        1.6004847314
 O         -5.9386599472       -1.5824002934       -0.2661476989
 C         -4.4155234271        0.5571325277       -0.4760193536
 C         -4.5963414229        1.6355742262        0.3674287546
 C         -4.4452951025        2.9168709119       -0.1386585490
 C         -4.1190892853        3.0962860046       -1.4739355902
 C         -3.9452402925        2.0029541024       -2.3086379189
 C         -4.0979222927        0.7193443495       -1.8096162083
 H         -3.9613524950       -0.1499827225       -2.4308382859
 H         -3.6861006684        2.1459898235       -3.3453523869
 H         -3.9970826697        4.0938603565       -1.8657025647
 H         -4.5796127097        3.7688440988        0.5089632829
 H         -4.8391571886        1.4485704365        1.4016541022
 H         -3.9418885775       -2.9026217878       -0.9599256796
 H         -1.9380782144       -4.1469892210       -0.8013809991
 H          0.4350224488       -4.1942311001       -0.1273080663
 H          1.4980598424       -2.1756870825        0.8080017047
 H          0.7058756557        0.0233580639        2.2711998172
 C         -0.4116685006        1.4946631466        1.1937006224
 C         -1.3982516326        1.7724944431        2.2868174451
 C         -0.1381757641        2.5777033640        2.1921391345
 H         -0.2055605061        3.6055221744        1.8692376197
 H          0.6422281551        2.3976453527        2.9170782524
 H         -2.3314542635        2.2481084929        2.0261799391
 H         -1.4840256911        1.0459297777        3.0808758224
 H         -0.6680749371        1.7971174634        0.1842163674
