  62
        -98.94319169
 C          0.8201396563        1.6946831194       -0.8312757586
 C          1.9628348000        2.0638947696       -0.0751440958
 C          3.1120121523        1.1565309114       -0.1438031056
 C          3.0406235459        0.0514086439       -0.9074282525
 C          4.1367735365       -0.9608272253       -1.1035838271
 C          4.2168557530       -2.0215264804        0.0024347448
 C          4.7566330961       -1.5274471531        1.3447993910
 H          4.9659592220       -2.4106981080        1.9514393286
 H          5.7034076055       -1.0092152128        1.1895845104
 C          3.7889205884       -0.6177076254        2.1145920201
 H          2.7823902409       -0.7226864743        1.7025041688
 H          3.7423024906       -0.9337015862        3.1591078346
 C          4.1726809272        0.8619579270        2.1063249456
 H          5.1173883546        0.9999061656        2.6372915511
 H          3.4005849830        1.4206562074        2.6416613184
 C          4.3081999137        1.4686113240        0.7037338328
 H          4.3696528484        2.5550943589        0.8042841938
 H          5.2188623170        1.1098178341        0.2243205342
 H          3.2209649109       -2.4422887819        0.1482880795
 H          4.8724699908       -2.8177109043       -0.3574408327
 H          3.9272750957       -1.4641819975       -2.0496199309
 H          5.0951350995       -0.4473441620       -1.1889634198
 O          1.9369250312       -0.2606204495       -1.6338152774
 C          0.7948431275        0.5354033966       -1.6085250096
 O         -0.1267028597        0.0976046561       -2.3192017948
 O          2.0203388493        3.1155108333        0.6177088783
 C         -0.3826282119        2.6138255755       -0.7201475500
 C         -1.2617173577        2.1980016905        0.4321323912
 C         -1.7137138010        3.1327741446        1.3566006298
 C         -2.5182429544        2.7445784710        2.4130460039
 C         -2.8969293152        1.4223609680        2.5580558176
 C         -2.4466243169        0.4785936385        1.6414856144
 C         -1.6251833823        0.8684809101        0.5939469430
 H         -1.2786591892        0.1303439322       -0.1127004701
 N         -2.7906880269       -0.8738044260        1.7708026551
 S         -3.1029905167       -1.7817363906        0.3967286724
 O         -3.7185830702       -0.9799259285       -0.6337915626
 O         -3.8963920879       -2.8928641020        0.8839539930
 C         -1.5233114374       -2.4152036197       -0.1161733339
 C         -0.6488026261       -2.8631962703        0.8546314958
 C          0.5488979342       -3.4360610554        0.4610946655
 C          0.8469038796       -3.5559848026       -0.8886811958
 C         -0.0407371375       -3.0991414200       -1.8485232705
 C         -1.2406085465       -2.5231480462       -1.4619726905
 H         -1.9466749197       -2.1377144046       -2.1795320261
 H          0.1975969303       -3.1756339672       -2.8969944801
 H          1.7775882534       -4.0071259213       -1.1965103983
 H          1.2436854514       -3.7895052292        1.2071246169
 H         -0.9150807819       -2.7544391022        1.8931508279
 H         -3.4409524706       -1.0824225844        2.5146176542
 H         -3.5316514104        1.1176842481        3.3762097601
 H         -2.8600057682        3.4787325744        3.1267149343
 H         -1.4184625119        4.1662253397        1.2496548161
 H          0.0380655230        3.6013535930       -0.4694400256
 C         -1.1587077647        2.7759071426       -2.0183811156
 C         -2.4558095790        2.0888194194       -2.3081513311
 C         -2.4363702327        3.5625080497       -2.0409263810
 H         -2.6133027165        4.2401217805       -2.8625461843
 H         -2.8295254441        3.9020051510       -1.0944043671
 H         -2.6189945021        1.7459695282       -3.3189101780
 H         -2.8755921587        1.4256395396       -1.5670367361
 H         -0.4927077558        2.9075443245       -2.8659084255
