  62
        -98.94214267
 C         -1.2910795841       -1.2961085814        0.8203906061
 C         -2.2544468239       -0.8876462809       -0.1293215684
 C         -2.9169078736        0.4070912543        0.1146726410
 C         -2.5269575061        1.1634323714        1.1567857840
 C         -3.0018673880        2.5146274604        1.6498194443
 C         -3.9484409460        3.3630074442        0.8065475645
 C         -3.3206952235        3.9473358608       -0.4592328926
 H         -4.1097933130        4.4269158082       -1.0431623204
 H         -2.6065407260        4.7211194007       -0.1657098391
 C         -2.5755415130        2.9582205699       -1.3527846574
 H         -2.1609098180        3.5187509319       -2.1961658621
 H         -1.7240109174        2.5308614107       -0.8179293097
 C         -3.4248424361        1.8253974441       -1.9245902687
 H         -2.8012892165        1.2789921931       -2.6379808966
 H         -4.2752535304        2.2412584098       -2.4699619812
 C         -3.9505706004        0.8099696568       -0.8977903489
 H         -4.8490515561        1.1760251623       -0.4064660588
 H         -4.2188465918       -0.1029467862       -1.4382441842
 H         -4.8452125516        2.7994421246        0.5664647768
 H         -4.2601919589        4.2018773641        1.4349545238
 H         -3.4736821456        2.3266042814        2.6208676058
 H         -2.0936884755        3.0915897983        1.8538510679
 O         -1.5663131985        0.7408482681        2.0303551065
 C         -0.9254977778       -0.4763238975        1.8845552269
 O         -0.0616412021       -0.7084130064        2.7555971264
 H          1.1421869447       -0.6125621821        0.0741651967
 C          1.0768673256       -1.2839667257       -0.7685376171
 C          0.2840236389       -2.4209908884       -0.6631645240
 C          0.2231982694       -3.2924868110       -1.7406852753
 C          0.9044949144       -2.9977320624       -2.9103127102
 C          1.6342320785       -1.8303532593       -3.0348358794
 C          1.7178515629       -0.9608209670       -1.9510525646
 N          2.4531765903        0.2280551253       -2.0347329267
 S          2.1125774429        1.5522070599       -1.0711181587
 O          0.7087560299        1.6693571596       -0.7563018791
 O          2.6950389893        2.6650219113       -1.7935961430
 C          3.0844386411        1.2551712156        0.3895628166
 C          4.4440762635        1.0717388427        0.2240559839
 C          5.2305124504        0.8401697425        1.3399355921
 C          4.6473705647        0.7947801054        2.5980344735
 C          3.2831388785        0.9856955873        2.7483426280
 C          2.4919484280        1.2219787860        1.6345620299
 H          1.4250094856        1.3607021114        1.7212248657
 H          2.8193942878        0.9417632046        3.7208372006
 H          5.2581068332        0.6095882887        3.4676102202
 H          6.2925788400        0.6929565550        1.2276549095
 H          4.8570643909        1.1190269136       -0.7697156951
 H          2.7597202305        0.4866158547       -2.9602751235
 H          2.1307611298       -1.5860013901       -3.9614748638
 H          0.8446213413       -3.6769161913       -3.7473391693
 H         -0.3722989927       -4.1881171161       -1.6757025342
 C         -0.5062665698       -2.5822780251        0.6137833445
 H          0.1999345813       -2.6472104476        1.4540780358
 C         -1.4115192598       -3.7935534580        0.6338783255
 C         -0.8568268540       -5.1359837990        1.0020490008
 C         -1.7638349833       -4.4138132949        1.9513095279
 H         -2.7672845630       -4.7860715375        2.0930568645
 H         -1.3329567639       -3.9729893811        2.8386184079
 H         -1.2387701328       -6.0089045761        0.4947958579
 H          0.1925872334       -5.1918901114        1.2486022893
 H         -2.1884190896       -3.7470156955       -0.1198528449
 O         -2.5649316856       -1.5740721962       -1.1386936195
