  62
        -98.93530043
 C         -2.2191453886       -1.0829112826       -0.5215763732
 C         -3.5205214117       -0.9737354519        0.0235344849
 C         -4.2708228816        0.2640165168       -0.2627037315
 C         -3.6776972554        1.2219026066       -0.9992730320
 C         -4.2169772005        2.5741143525       -1.3846389155
 C         -4.1883885313        3.5785495224       -0.2221700711
 C         -4.6891065240        3.0304845764        1.1113501593
 H         -4.0793175813        2.1710378039        1.3966184635
 H         -4.5299439879        3.8034972414        1.8679464443
 C         -6.1655547683        2.6420695635        1.1423139268
 H         -6.7702247954        3.5118521263        0.8763493875
 H         -6.4068698861        2.3731983647        2.1738595285
 C         -6.5696743877        1.4722710422        0.2418190410
 H         -6.6677267885        1.7868980038       -0.7936584818
 H         -7.5629388186        1.1442881605        0.5616709228
 C         -5.6568562145        0.2540079913        0.3360031461
 H         -5.5304224316       -0.0198874169        1.3896744064
 H         -6.1670077956       -0.6012952402       -0.1230897484
 H         -3.1543999720        3.9035222640       -0.0808454964
 H         -4.7804544574        4.4504601873       -0.5056679407
 H         -3.5742444666        2.9502700527       -2.1836416791
 H         -5.2213951396        2.4760700829       -1.7855489791
 O         -2.4130273366        1.0810698002       -1.4892209470
 C         -1.6530616255       -0.0532743517       -1.2720975754
 O         -0.5253662285       -0.0170119315       -1.8023657251
 O         -4.0459164926       -1.8780980763        0.7272715511
 C         -1.4223977587       -2.3437059942       -0.2271429393
 C         -0.2903815056       -1.9682220009        0.6962857328
 C         -0.5344724959       -1.8562493550        2.0623378699
 C          0.4573497073       -1.4269162048        2.9242960369
 C          1.7104433966       -1.0907441260        2.4419531471
 C          1.9595813067       -1.1910676905        1.0803409087
 C          0.9691159641       -1.6428211204        0.2183566504
 H          1.1714966575       -1.6991078778       -0.8394041171
 N          3.2278589801       -0.8358556614        0.5759149686
 S          3.8230624362        0.6600698829        1.0957827633
 O          4.4666961458        0.4700823293        2.3727051785
 O          2.7762613016        1.6575468008        1.0642794288
 C          5.0476535642        0.9979491752       -0.1537169930
 C          4.6380246242        1.5766025316       -1.3404721137
 C          5.5797277998        1.8159421440       -2.3287136610
 C          6.9065553681        1.4720696522       -2.1155535383
 C          7.3015054979        0.8913468951       -0.9198080992
 C          6.3651422331        0.6495514193        0.0730988034
 H          6.6243971914        0.2064423984        1.0203481077
 H          8.3339517341        0.6269245454       -0.7581151082
 H          7.6362551620        1.6601590546       -2.8871996371
 H          5.2742680566        2.2683152730       -3.2585898556
 H          3.5972952964        1.8353414619       -1.4619341603
 H          3.2382602553       -0.8750296493       -0.4352918123
 H          2.4880516549       -0.7306425022        3.0964278244
 H          0.2530845059       -1.3443382169        3.9814552843
 H         -1.5208450696       -2.0924087692        2.4371856655
 H         -2.1100454506       -2.9996129257        0.3231431521
 C         -0.9793481104       -3.0498482209       -1.4909771069
 C         -0.4746737637       -4.4583041174       -1.4033978261
 C         -1.8074172506       -4.1771333086       -2.0276536389
 H         -1.9081553399       -4.2767768209       -3.0980186297
 H         -2.6973610263       -4.4481562980       -1.4788983025
 H          0.3411495089       -4.7552456711       -2.0443304478
 H         -0.4583798263       -4.9193706833       -0.4274974839
 H         -0.5193903877       -2.3887624494       -2.2151380088
