  62
        -98.94343292
 C         -1.9575216363       -0.8604189075        0.0432255552
 C         -2.2406561508        0.1085864759        1.0331969703
 C         -2.5153704100        1.4658948611        0.5463627757
 C         -2.4434269175        1.7167565723       -0.7737944444
 C         -2.7369850245        3.0437167806       -1.4108853530
 C         -4.2159718099        3.1579290594       -1.8064658457
 C         -5.1853910400        2.7714009440       -0.6895597824
 H         -6.1976559203        2.9180975019       -1.0720688166
 H         -5.0730109584        1.7064655430       -0.4740948873
 C         -5.0082761932        3.5710608793        0.6086404597
 H         -4.4402617584        4.4803553810        0.4093829666
 H         -5.9926550692        3.8750311739        0.9704724946
 C         -4.3374400920        2.7954002301        1.7437925471
 H         -4.8471097373        1.8391334177        1.8858817453
 H         -4.4561117749        3.3701432063        2.6661610240
 C         -2.8384693527        2.5190068826        1.5689290394
 H         -2.3141539980        3.4495900549        1.3401617815
 H         -2.4551175707        2.1376464159        2.5203824185
 H         -4.4100489819        4.1849825975       -2.1206728430
 H         -4.3964723427        2.5002825839       -2.6597212224
 H         -2.4708879990        3.8385335319       -0.7166089239
 H         -2.1192540109        3.1361794240       -2.3057712100
 O         -2.1396289783        0.7666926372       -1.6942033410
 C         -1.8843357240       -0.5414220028       -1.3124989124
 O         -1.6175471688       -1.3097072512       -2.2566538093
 H          0.5195500165       -0.7113732492        0.3359443544
 C          0.7489248591       -1.7250554415        0.0396913351
 C         -0.2570177560       -2.6828042038        0.0350147388
 C          0.0675174319       -3.9819167843       -0.3358861874
 C          1.3637282401       -4.3027079817       -0.7008314744
 C          2.3580281437       -3.3430123520       -0.7068427796
 C          2.0424786899       -2.0374706517       -0.3425753010
 N          3.0207530280       -1.0318177126       -0.3952571100
 S          2.8141509018        0.4262536711        0.4137824222
 O          2.5672856032        0.1983054647        1.8214013467
 O          1.8380106077        1.2213357918       -0.2900275086
 C          4.4384520575        1.1255837259        0.1863816509
 C          5.3508606982        1.0878245766        1.2235747696
 C          6.6195379803        1.6083612380        1.0201008439
 C          6.9529957395        2.1526824968       -0.2108535926
 C          6.0259476728        2.1850379811       -1.2423765474
 C          4.7557619764        1.6672256318       -1.0451690842
 H          3.9992450678        1.6772149342       -1.8127553791
 H          6.2873313262        2.6112700503       -2.1974750361
 H          7.9406368416        2.5568916909       -0.3670469545
 H          7.3407305711        1.5875833872        1.8210795894
 H          5.0430205980        0.6612086036        2.1646132428
 H          3.9670887917       -1.3801438865       -0.3372459113
 H          3.3658811579       -3.5927076132       -1.0002160364
 H          1.6021550322       -5.3161462889       -0.9859129576
 H         -0.6957383919       -4.7428065175       -0.3405261054
 C         -1.6461595272       -2.2811437597        0.4704851621
 H         -1.6634944021       -2.2656507920        1.5718848159
 C         -2.7215716358       -3.2300226624       -0.0206533026
 C         -3.1175382972       -4.4236321795        0.7948883574
 C         -4.0429157873       -3.2505530603        0.6860846313
 H         -4.9420651754       -3.3509344126        0.0970344865
 H         -4.1526174560       -2.6029219906        1.5440277442
 H         -3.3852337106       -5.3337016906        0.2794601476
 H         -2.6092571382       -4.5786594606        1.7346801338
 H         -2.7297471980       -3.3188547042       -1.1013120555
 O         -2.2636439160       -0.1516607065        2.2687836155
