  62
        -98.93912625
 C          2.3675466451        1.2762058133       -0.0230185043
 C          3.1118378894        0.5033805104        0.8952401368
 C          3.7965948492       -0.6917111984        0.3649416590
 C          3.6651488558       -0.9833477327       -0.9427693407
 C          4.2163387034       -2.1689458355       -1.6886610206
 C          3.4147859600       -3.4538142154       -1.4209114081
 C          3.0358240470       -3.6838126812        0.0401689745
 H          2.4570904646       -2.8294350802        0.3980244173
 H          2.3756758574       -4.5547767755        0.0785586780
 C          4.2071337387       -3.9407219954        0.9858001878
 H          3.7860709235       -4.1601776455        1.9703794030
 H          4.7467037839       -4.8291447272        0.6504049583
 C          5.2089714526       -2.7946533903        1.1402690851
 H          5.8706725938       -2.7364511125        0.2805002059
 H          5.8396879360       -3.0295994187        2.0026054690
 C          4.5844598535       -1.4310586710        1.4199635979
 H          3.9190619742       -1.5141873375        2.2870235994
 H          5.3791223926       -0.7426006928        1.7322096725
 H          2.4873909006       -3.3992495353       -1.9972061738
 H          3.9910116201       -4.3045851999       -1.7881268428
 H          4.1453079445       -1.9317257228       -2.7523423092
 H          5.2660699866       -2.3076690646       -1.4482779997
 O          2.9255706819       -0.2134918078       -1.7915194472
 C          2.2528382138        0.9170387965       -1.3656694312
 O          1.6098676955        1.5023120228       -2.2570807197
 H          0.2517407429        0.3766002411        1.2941772181
 C         -0.4018031190        1.0718678282        0.7804019766
 C          0.1304723910        2.2585803272        0.2895754067
 C         -0.7178287274        3.1414644481       -0.3638211810
 C         -2.0556343546        2.8278464915       -0.5363797085
 C         -2.5763794162        1.6394456822       -0.0589357226
 C         -1.7383118999        0.7536544280        0.6063920177
 N         -2.2591471827       -0.4570947798        1.1051873008
 S         -3.0048946338       -1.4748884946       -0.0077818233
 O         -2.8982994830       -2.8004101528        0.5636438283
 O         -2.4612807299       -1.3022346422       -1.3354655218
 C         -4.7091669761       -0.9625983521        0.0324646166
 C         -5.3577397581       -0.9546990712        1.2520564296
 C         -6.6867496822       -0.5655745714        1.2996752954
 C         -7.3416606835       -0.1973216058        0.1336163833
 C         -6.6771374023       -0.2140338423       -1.0830974749
 C         -5.3466903036       -0.6002369392       -1.1376530127
 H         -4.7858910916       -0.6216585963       -2.0585688884
 H         -7.1875720828        0.0723870189       -1.9885586906
 H         -8.3762989825        0.1046508558        0.1731226692
 H         -7.2067684587       -0.5506935022        2.2438915186
 H         -4.8126171850       -1.2514517259        2.1324245951
 H         -1.5871466847       -0.9824598195        1.6471529473
 H         -3.6150415078        1.3888105255       -0.2008580297
 H         -2.7016619784        3.5193509291       -1.0553115035
 H         -0.3295541934        4.0684339517       -0.7520697331
 C          1.6094879846        2.4929705683        0.4782491793
 H          1.8147715913        2.5410624892        1.5580146056
 C          2.1205427365        3.7588996095       -0.1738940531
 C          1.9770526990        5.0756767431        0.5273887390
 C          3.3260773886        4.4355319554        0.4041254316
 H          4.0462709941        4.8703805182       -0.2724659610
 H          3.7675559010        3.9942997928        1.2858815653
 H          1.5032461018        5.0754927394        1.4972327202
 H          1.7727367302        5.9551223291       -0.0641983089
 H          2.0288243424        3.7376378564       -1.2538201149
 O          3.1920845086        0.7861155826        2.1227450960
