  62
        -98.94175698
 C         -2.2015538493       -1.2613340710        0.3009969203
 C         -1.8084528896       -0.3210157309       -0.6836699997
 C         -2.6145930499        0.9106865089       -0.7487212895
 C         -3.6292784699        1.0884584586        0.1157247206
 C         -4.5072835901        2.3043461884        0.1758256608
 C         -3.9482036603        3.3518057985        1.1484748108
 C         -2.4676228204        3.6648540189        0.9321949606
 H         -2.1895025004        4.4400647889        1.6497203106
 H         -1.8770028401        2.7781446290        1.1757032905
 C         -2.1192396607        4.1321551090       -0.4879874495
 H         -3.0229175508        4.4637251688       -1.0005410993
 H         -1.4514770609        4.9934898692       -0.4180997595
 C         -1.4041836405        3.0835296692       -1.3418752696
 H         -0.5508953704        2.6876751094       -0.7858349197
 H         -1.0117447308        3.5840565894       -2.2310576096
 C         -2.2645808903        1.9065254890       -1.8193285795
 H         -3.1688076505        2.2857184988       -2.2999147894
 H         -1.6878280303        1.3510039992       -2.5647540796
 H         -4.5338355305        4.2670201684        1.0450427509
 H         -4.0752940900        2.9815091184        2.1685838508
 H         -4.5968534604        2.7309866684       -0.8213736492
 H         -5.4963250000        1.9956704882        0.5189616309
 O         -3.9450765695        0.1850179985        1.0789974206
 C         -3.2372157292       -1.0002950513        1.2016754205
 O         -3.6140309189       -1.7247673315        2.1447746205
 H         -0.0756517892       -0.8076383206        1.8397214300
 C          0.5749198209       -1.4168348404        1.2229932199
 C          0.0142800410       -2.3995000905        0.4156697600
 C          0.8613087811       -3.1634927303       -0.3763452602
 C          2.2298303510       -2.9555023600       -0.3457219904
 C          2.7829264509       -1.9772125099        0.4585601696
 C          1.9419588108       -1.1902092601        1.2360635597
 N          2.4860328507       -0.1649351000        2.0259858197
 S          3.7409991804        0.7474526003        1.4005747896
 O          4.9926994506        0.0764988406        1.6546491393
 O          3.5967415702        2.0499533403        2.0148662096
 C          3.4743959001        0.8554927003       -0.3609064704
 C          4.5225737001        0.5858774206       -1.2178149506
 C          4.3105839098        0.6721397206       -2.5842170905
 C          3.0582627897        1.0177975404       -3.0677429403
 C          2.0162197298        1.2880516801       -2.1946075802
 C          2.2257707300        1.2117403201       -0.8281017002
 H          1.4265159800        1.4084467298       -0.1308384401
 H          1.0350092196        1.5356016199       -2.5650477400
 H          2.8892947195        1.0742565704       -4.1314662603
 H          5.1191672498        0.4631799909       -3.2660869007
 H          5.4754402002        0.3068716508       -0.7977184907
 H          1.7993377206        0.4169530498        2.4818243898
 H          3.8471539609       -1.8092342196        0.4982668994
 H          2.8755483811       -3.5619055798       -0.9620893705
 H          0.4522444512       -3.9148801704       -1.0306775502
 C         -1.4830361089       -2.5889106409        0.4695364802
 H         -1.7343290887       -2.9171813510        1.4924709402
 C         -1.9838087888       -3.6804320610       -0.4669216998
 C         -3.3475284489       -3.6131197013       -1.0856692796
 C         -2.1284114891       -3.4562246709       -1.9412602398
 H         -1.8675808090       -4.2619177808       -2.6117312699
 H         -1.8869760694       -2.4757749509       -2.3192318398
 H         -3.9508422891       -2.7396609214       -0.8839608795
 H         -3.9186578587       -4.5264907814       -1.1607759096
 H         -1.6552300985       -4.6660847609       -0.1523006099
 O         -0.8447791097       -0.4862157206       -1.4725528698
