  62
        -98.94531979
 C         -2.3639693132       -0.3685332456        0.0936008515
 C         -1.5554889081        0.2850251716       -0.8630616931
 C         -1.5857505788        1.7581873024       -0.8579500419
 C         -2.3266710112        2.3954750668        0.0650501002
 C         -2.5829138875        3.8732868538        0.2418879950
 C         -1.4476181627        4.8551668809       -0.0563183896
 C         -0.0620864143        4.4005940431        0.4242666770
 H          0.3839179385        5.1916265141        1.0304006099
 H         -0.1517211962        3.5163806289        1.0594240733
 C          0.8946292340        4.0839228746       -0.7260736040
 H          1.9193381341        4.1187450322       -0.3475550555
 H          0.7980314747        4.8522044714       -1.4968153796
 C          0.6912280810        2.7047697671       -1.3475240020
 H          1.4113803558        2.5865724035       -2.1611246280
 H          0.9203036175        1.9450787953       -0.5963169009
 C         -0.7219840896        2.4277184488       -1.8894396664
 H         -1.1823458544        3.3358166200       -2.2719135200
 H         -0.6344402623        1.7118015161       -2.7112277214
 H         -1.7133709655        5.7940952880        0.4332780104
 H         -1.4091172685        5.0586987463       -1.1252253486
 H         -3.4498423016        4.1341935122       -0.3740342423
 H         -2.8905733926        3.9828870253        1.2853714500
 O         -3.0486139422        1.7214032941        1.0080686930
 C         -3.0852221360        0.3400227668        1.0502718966
 O         -3.7866849896       -0.1316079097        1.9704506667
 H         -0.4331017949       -0.9834724463        1.6570503676
 C         -0.1268460032       -1.8473222308        1.0847642907
 C         -1.0308009103       -2.4605021754        0.2269957470
 C         -0.6130984104       -3.5779817496       -0.4856761195
 C          0.6834931499       -4.0464232037       -0.3601993925
 C          1.5946703476       -3.4000860552        0.4549931961
 C          1.1833220196       -2.2866580486        1.1783053678
 N          2.0767445843       -1.5721224767        2.0045734059
 S          2.3875014649        0.0202955887        1.5791397751
 O          3.3668686188        0.4802733886        2.5408726249
 O          1.1555367110        0.7629899542        1.5222583144
 C          3.1564324100       -0.0925923844       -0.0281165194
 C          4.5280096006        0.0590896493       -0.1061298585
 C          5.1532172825       -0.0843683707       -1.3335988662
 C          4.3998197779       -0.3865978216       -2.4581291800
 C          3.0259813608       -0.5409127185       -2.3615270684
 C          2.3909731030       -0.3952283325       -1.1369376301
 H          1.3203492227       -0.5023925667       -1.0535530870
 H          2.4313758152       -0.7744115310       -3.2300737029
 H          4.8847619514       -0.5013748945       -3.4147780616
 H          6.2217370027        0.0378318554       -1.4087525648
 H          5.0702175085        0.2946989677        0.7954498634
 H          2.9566832996       -2.0472460923        2.1550960777
 H          2.6137929815       -3.7481714594        0.5319401392
 H          0.9935535762       -4.9152899524       -0.9202646228
 H         -1.3024990823       -4.0794677361       -1.1449891061
 C         -2.4224157558       -1.8850112408        0.1285744931
 H         -2.9697557298       -2.1472657939        1.0464294010
 C         -3.1994911531       -2.3984303838       -1.0673957179
 C         -4.0072417942       -3.6565073177       -0.9652432332
 C         -4.6957208746       -2.3277121717       -1.0388664857
 H         -5.2177058353       -2.0637008030       -1.9463024836
 H         -5.1535637382       -1.9342204782       -0.1426037082
 H         -4.0617888466       -4.3064523449       -1.8255795209
 H         -4.0098914766       -4.1742703259       -0.0179516072
 H         -2.7065747857       -2.1784808896       -2.0075308694
 O         -0.8545087733       -0.3356942270       -1.7054214334
