  62
        -98.93251186
 C         -2.1706840368       -0.6958292112       -0.0933047038
 C         -3.4584093480       -1.1323313091        0.2916227002
 C         -4.5703880032       -0.1874200514        0.0792040880
 C         -4.3097880240        1.0096456999       -0.4765399674
 C         -5.2664203160        2.1313095626       -0.7938969765
 C         -6.6006597077        1.7344791510       -1.4448386880
 C         -7.8045880058        1.9061667116       -0.5170127734
 H         -7.6724837811        2.8260613670        0.0563207266
 H         -8.7015465998        2.0291291120       -1.1280336353
 C         -8.0552807427        0.7441903284        0.4425061947
 H         -8.4332427032       -0.1127080271       -0.1192343294
 H         -8.8424330114        1.0515579403        1.1349487406
 C         -6.8393154272        0.2905596396        1.2528348224
 H         -7.2056258783       -0.2204410475        2.1457496517
 H         -6.2635663209        1.1506620337        1.5925069414
 C         -5.9265424020       -0.6872035702        0.4977810336
 H         -5.7157455622       -1.5555993253        1.1296921948
 H         -6.4448280534       -1.0772238900       -0.3829376686
 H         -6.7506032525        2.3774683478       -2.3136392658
 H         -6.5447978640        0.7097139524       -1.8086793360
 H         -5.4540172745        2.6969488536        0.1221359440
 H         -4.7106283321        2.7951601222       -1.4600020015
 O         -3.0466477684        1.3914455868       -0.8264647998
 C         -1.9509165686        0.5659439449       -0.6423652081
 O         -0.8661995785        1.0624559208       -1.0036028139
 O         -3.6732036324       -2.2655505143        0.8012195225
 C         -0.9884679597       -1.6279227547        0.1000778144
 C          0.0359023761       -0.9763124411        0.9950942664
 C         -0.3662461510       -0.5322354696        2.2528408261
 C          0.5298075049        0.0834851447        3.1036520086
 C          1.8444060711        0.2749813359        2.7152716092
 C          2.2595015989       -0.1731800095        1.4675330106
 C          1.3587149090       -0.8052964463        0.6201421326
 H          1.7029558375       -1.1363003047       -0.3441714365
 N          3.6064788432       -0.0318997246        1.0775218937
 S          3.9851436503        0.5260969892       -0.4718702587
 O          3.4740258057        1.8661480370       -0.6630341511
 O          3.5992605723       -0.4616958450       -1.4455798968
 C          5.7639721734        0.5675723727       -0.3370045438
 C          6.4546920503       -0.6275142046       -0.4051252266
 C          7.8338985719       -0.6128914863       -0.2728009125
 C          8.4964002678        0.5897395656       -0.0753407268
 C          7.7902203247        1.7812531051       -0.0114449804
 C          6.4100864975        1.7731081193       -0.1416617757
 H          5.8201672148        2.6749933585       -0.1061240519
 H          8.3079314181        2.7149167783        0.1387655911
 H          9.5700895103        0.5987382872        0.0266132117
 H          8.3866041579       -1.5370500528       -0.3244211006
 H          5.8980455844       -1.5354877106       -0.5677471636
 H          4.1307362063        0.5133148315        1.7507550783
 H          2.5435813170        0.7664523954        3.3753188783
 H          0.2026505325        0.4260067460        4.0739916505
 H         -1.3972516564       -0.6719135789        2.5489744080
 H         -1.3925085590       -2.5075230510        0.6232161506
 C         -0.4368555018       -2.0700486264       -1.2381766414
 C          0.2919377240       -3.3741248839       -1.3556657312
 C         -1.0773288933       -3.2249710402       -1.9456764947
 H         -1.1764567196       -3.1796234006       -3.0198646087
 H         -1.9045968865       -3.7114519169       -1.4497605437
 H          1.1390935542       -3.4282419875       -2.0227226916
 H          0.3958406209       -3.9682649269       -0.4604109618
 H         -0.0947239553       -1.2387241064       -1.8460853983
