  62
        -98.94379456
 C         -1.6518934016       -1.4223143403        0.4039435192
 C         -1.7757030180       -0.1788775536        1.0796972053
 C         -3.0464724149        0.5325510815        0.9101278595
 C         -4.0306647150       -0.0291881123        0.1857579186
 C         -5.4037298975        0.5432551245       -0.0407312895
 C         -5.4807401221        1.5500300838       -1.1965356525
 C         -4.8283447325        2.9052547174       -0.9211549002
 H         -5.1413965688        3.5796595590       -1.7206982406
 H         -5.2149609229        3.3092647448        0.0149887100
 C         -3.2943769297        2.8692038302       -0.8763407571
 H         -2.8940210312        3.6975269664       -1.4648020675
 H         -2.9381778909        1.9467411173       -1.3408749658
 C         -2.6948228730        2.9785390422        0.5257351121
 H         -1.6099956648        2.8890588381        0.4356174138
 H         -2.9246764756        3.9594922802        0.9475052808
 C         -3.1763795971        1.9012673470        1.5063787494
 H         -2.5448477074        1.9367415487        2.3974305633
 H         -4.2077494720        2.0925292165        1.8022540931
 H         -6.5385577927        1.7160644757       -1.4135426610
 H         -5.0266638139        1.0999937814       -2.0824227008
 H         -6.0567667179       -0.3002706416       -0.2751084372
 H         -5.7597049681        1.0129295457        0.8767868363
 O         -3.8863266649       -1.2336786537       -0.4232017549
 C         -2.6909446722       -1.9400347439       -0.3699217579
 O         -2.7120374415       -2.9888799216       -1.0441849963
 H          2.1630126099       -1.1060738103        0.7358709070
 C          1.8731538185       -1.2911218507       -0.2864896024
 C          0.6232374632       -1.8231014692       -0.5672395968
 C          0.2797513558       -2.0686359696       -1.8925196793
 C          1.1720004883       -1.7803275045       -2.9086897681
 C          2.4157800605       -1.2431065639       -2.6264140900
 C          2.7719235831       -1.0011091742       -1.3044805649
 N          4.0390145580       -0.4939854263       -0.9943826407
 S          4.3233124302        0.4652159662        0.3401165269
 O          5.6254436926        1.0403302866        0.0814599895
 O          4.2057196490       -0.3140537186        1.5466660649
 C          3.0872206315        1.7487681064        0.2948659446
 C          2.1241482706        1.8241072158        1.2785192918
 C          1.1823561990        2.8388683988        1.2194764728
 C          1.2172900382        3.7531451698        0.1788783811
 C          2.1930269108        3.6652366080       -0.8034455055
 C          3.1384203414        2.6553353855       -0.7469336817
 H          3.9217483801        2.5677768644       -1.4822249324
 H          2.2179098389        4.3808872166       -1.6095396130
 H          0.4817609324        4.5414511413        0.1348732829
 H          0.4210659389        2.8910162235        1.9810241772
 H          2.1128354222        1.0954497572        2.0724988012
 H          4.6033846412       -0.2260187777       -1.7862324573
 H          3.1107491237       -1.0214833721       -3.4217262463
 H          0.8952519558       -1.9745639210       -3.9339971954
 H         -0.6896462822       -2.4876239007       -2.1153376479
 C         -0.3246892616       -2.1421496930        0.5646520935
 H          0.1152822998       -1.7325423008        1.4846897403
 C         -0.4499428243       -3.6444686318        0.7282134221
 C          0.6744252738       -4.3968231754        1.3718294512
 C         -0.6251815601       -4.2233258868        2.0983066259
 H         -1.2713689449       -5.0801938459        2.2158985516
 H         -0.6549057835       -3.5370991067        2.9323534506
 H          1.5276787200       -3.8290230740        1.7128853092
 H          0.9236511022       -5.3751343219        0.9904511239
 H         -0.9769378953       -4.1244857713       -0.0857867196
 O         -0.8659861230        0.3079066279        1.8015307807
