  62
        -98.93488394
 C         -2.6609840854       -1.1226736704        0.3894973890
 C         -2.3880932738       -0.3331747543       -0.7556798200
 C         -3.0049987379        1.0055324834       -0.7844630818
 C         -3.7726152583        1.4088430487        0.2411090808
 C         -4.5017473863        2.7187287538        0.3972775424
 C         -3.7122090136        3.9969935026        0.0717570591
 C         -2.1953383314        3.9083901583        0.2997759919
 H         -1.9473961931        3.0123941373        0.8722763566
 H         -1.8746589985        4.7677569006        0.8921714927
 C         -1.3921821314        3.9170114454       -1.0038729636
 H         -0.3635985907        4.2125684859       -0.7805604047
 H         -1.8158076367        4.6752553274       -1.6667562970
 C         -1.3167455280        2.5844579774       -1.7503977065
 H         -0.6425181046        1.9018021225       -1.2236253701
 H         -0.8611541982        2.7747079985       -2.7254757811
 C         -2.6571396722        1.8632580987       -1.9659971190
 H         -2.5347161116        1.1829657534       -2.8131413526
 H         -3.4503826305        2.5707970208       -2.1966209675
 H         -4.1249109011        4.7923196599        0.6942108579
 H         -3.8930796761        4.2818943974       -0.9638027410
 H         -4.8249436292        2.7420610766        1.4404828452
 H         -5.4028202063        2.6868025438       -0.2211633664
 O         -4.0090140914        0.6176059955        1.3254150976
 C         -3.4382893635       -0.6390906821        1.4425086198
 O         -3.6883876062       -1.2142391585        2.5214925842
 O         -1.6714539713       -0.7131201502       -1.7154173566
 C         -2.0039650080       -2.4784468031        0.5955612329
 C         -0.5316147934       -2.3490865645        0.2880667828
 C          0.1407059004       -3.1104365687       -0.6570574462
 C          1.4841542342       -2.8866964459       -0.9067053863
 C          2.1824880225       -1.9067944534       -0.2256669979
 C          1.5190237838       -1.1406165044        0.7240203588
 C          0.1791286747       -1.3756805338        0.9808255095
 H         -0.3401717432       -0.7704212872        1.7162940606
 N          2.2194802361       -0.1317047091        1.4181950486
 S          2.8761515843        1.0986689441        0.4728886404
 O          2.9692067309        2.2429850857        1.3550039920
 O          2.1314647613        1.2881346516       -0.7489060602
 C          4.5161142708        0.5082888289        0.1127121515
 C          5.3645252133        0.2623740151        1.1744778574
 C          6.6434847522       -0.2030294766        0.9145585800
 C          7.0499687733       -0.4116318879       -0.3951794023
 C          6.1871004117       -0.1564605776       -1.4501037106
 C          4.9057755992        0.3087333117       -1.1969027794
 H          4.1970718598        0.5149711859       -1.9832634938
 H          6.5050508933       -0.3187692755       -2.4674662934
 H          8.0455488217       -0.7750964019       -0.5950890260
 H          7.3175096758       -0.4022482086        1.7319882070
 H          5.0085478456        0.4420629029        2.1751560374
 H          1.6786691377        0.2775501708        2.1675451683
 H          3.2253485422       -1.7230143145       -0.4270076371
 H          1.9929600868       -3.4795415620       -1.6514315520
 H         -0.3936753494       -3.8570337344       -1.2209917236
 H         -2.1047379645       -2.6775276724        1.6758786584
 C         -2.6821567418       -3.6364881481       -0.1187088882
 C         -4.1478138798       -3.5931152093       -0.4304266222
 C         -3.1439057604       -3.5497508843       -1.5410138166
 H         -3.0375231526       -4.4245255304       -2.1659795428
 H         -2.9861465833       -2.6187904110       -2.0610978250
 H         -4.7285557369       -4.4928033668       -0.2924257293
 H         -4.6829860397       -2.6863475663       -0.1871458255
 H         -2.2912390519       -4.5949608066        0.2089485351
