  62
        -98.94504703
 C          1.1169770665        1.8585591573       -0.6863353105
 C          0.4291607021        2.3735567405        0.4423423473
 C         -1.0045531098        2.6585420303        0.2413515181
 C         -1.5722836381        2.4269918261       -0.9545473544
 C         -3.0241964291        2.6259733139       -1.2775463514
 C         -3.8403006108        1.3501972578       -1.0303621226
 C         -3.6251916048        0.7279905933        0.3494169961
 H         -4.3025596088       -0.1255335022        0.4315685417
 H         -2.6106918184        0.3302409011        0.4205013425
 C         -3.8600200289        1.6828666834        1.5275718244
 H         -4.4529087349        2.5402717027        1.2049091647
 H         -4.4355421326        1.1570575832        2.2923720641
 C         -2.5742849219        2.1706852738        2.1989934314
 H         -1.9290263094        1.3132635329        2.4086092122
 H         -2.8404248872        2.6228347891        3.1588121698
 C         -1.7644370514        3.2110556396        1.4138820700
 H         -2.4208293695        4.0253853069        1.0969204740
 H         -1.0098700561        3.6217047876        2.0916856196
 H         -4.8973439217        1.5914436728       -1.1578013250
 H         -3.5661263397        0.6080855903       -1.7837175456
 H         -3.4156018971        3.4417412433       -0.6727157427
 H         -3.1042833973        2.8969131902       -2.3318782927
 O         -0.8775869454        1.9492289428       -2.0190080693
 C          0.4676725447        1.6397060221       -1.9047078054
 O          0.9754166131        1.1867016995       -2.9501013280
 H          1.2302250838       -0.0613383429        1.1471722851
 C          1.8650896288       -0.6661627964        0.5172808367
 C          2.6528239986       -0.0642671694       -0.4543642556
 C          3.4760224269       -0.8650366199       -1.2369984494
 C          3.5035261489       -2.2361030948       -1.0531556448
 C          2.6891600562       -2.8353235494       -0.1092140926
 C          1.8578673557       -2.0444761858        0.6761239527
 N          1.0000314549       -2.6243718964        1.6284198594
 S         -0.6184848148       -2.1933680849        1.6374630394
 O         -0.7661803714       -0.8236060793        2.0490850497
 O         -1.2496355142       -3.1883799343        2.4763802363
 C         -1.1580825015       -2.4035714453       -0.0486011187
 C         -0.9326167683       -1.3896739628       -0.9571667691
 C         -1.2977101120       -1.5759841997       -2.2806914144
 C         -1.8869498316       -2.7687596051       -2.6704929654
 C         -2.1130427185       -3.7773962650       -1.7454035247
 C         -1.7404086154       -3.5987790058       -0.4229881726
 H         -1.9005662126       -4.3537707605        0.3296610419
 H         -2.5746547268       -4.7019117595       -2.0527432323
 H         -2.1706786064       -2.9095268777       -3.7015203775
 H         -1.1051353213       -0.7864334060       -2.9912926029
 H         -0.4748158224       -0.4696903613       -0.6288678732
 H          1.0869844962       -3.6283337702        1.7013014556
 H          2.6913253557       -3.9070195096        0.0192606132
 H          4.1497066172       -2.8469494758       -1.6646203313
 H          4.0823878026       -0.4078003757       -2.0047207511
 C          2.5763850769        1.4272363597       -0.6720456698
 H          2.9525909281        1.6257493798       -1.6892108564
 C          3.4509200043        2.2132133063        0.2918983072
 C          3.9475041628        1.6557915687        1.5882439958
 C          4.8994655995        1.8555516643        0.4494865406
 H          5.6233702676        2.6535997312        0.5138312553
 H          5.2550542473        0.9741391422       -0.0623028912
 H          3.9924344274        2.3243323798        2.4343196123
 H          3.6649698961        0.6479179207        1.8512410425
 H          3.2084743742        3.2704423877        0.2871336593
 O          0.9603499165        2.6042543684        1.5576458266
