  62
        -98.94541076
 C         -2.5412960365       -0.3627428175        0.0960764713
 C         -2.4483447116        0.5852827547        1.1497776828
 C         -2.3163043572        1.9897572589        0.7574845960
 C         -2.3162229922        2.3162391049       -0.5470439292
 C         -2.1578231023        3.7001945396       -1.1141695197
 C         -0.6910285945        4.1371458476       -1.2377643355
 C         -0.0082073771        4.4978718405        0.0824884800
 H          0.9206014615        5.0132604181       -0.1702190200
 H         -0.6330889783        5.2005521516        0.6354982047
 C          0.3274107585        3.2896864339        0.9683332014
 H          0.3066558261        2.3812680487        0.3600576693
 H          1.3473782442        3.3932703060        1.3474579931
 C         -0.5900762542        3.1148360588        2.1795850175
 H         -0.4540954745        3.9552496116        2.8643177920
 H         -0.2966572061        2.2008174950        2.7021935887
 C         -2.0811637071        3.0024106855        1.8372414850
 H         -2.6131444650        2.6655239562        2.7304630928
 H         -2.4745984299        3.9738514970        1.5393948557
 H         -0.6633046693        5.0126377932       -1.8912570061
 H         -0.1287501303        3.3360952736       -1.7259263400
 H         -2.7059218619        4.4179743029       -0.5029923640
 H         -2.5988936037        3.6823816353       -2.1131906883
 O         -2.4743993754        1.3904419027       -1.5259906198
 C         -2.5217765507        0.0339131145       -1.2409196527
 O         -2.5651296145       -0.6804163085       -2.2659854120
 O         -2.4667616368        0.2629116135        2.3677525128
 C         -2.4983904735       -1.8245694223        0.5190068930
 C         -1.0400060197       -2.2138211619        0.5828366790
 C         -0.4353074127       -2.6076582342        1.7702436607
 C          0.9318889059       -2.8198235076        1.8307074526
 C          1.7270257456       -2.6065522562        0.7178824604
 C          1.1271835691       -2.2207160489       -0.4728254871
 C         -0.2452042874       -2.0619823113       -0.5449181466
 H         -0.6933524702       -1.7494082345       -1.4770292386
 N          1.9487307991       -1.8731948667       -1.5844482403
 S          2.2760481387       -0.2122937638       -1.5357580790
 O          1.1006871000        0.5575152195       -1.1907861843
 O          2.8939236981        0.1072955482       -2.8048607399
 C          3.4759988365       -0.1146656526       -0.2279566669
 C          4.7773536505       -0.4913261898       -0.4971813119
 C          5.7072368407       -0.4627634283        0.5297296938
 C          5.3200353227       -0.0644560523        1.8007737463
 C          4.0091979191        0.3102438294        2.0541508771
 C          3.0740910267        0.2842706314        1.0312417162
 H          2.0435030465        0.5645115196        1.1840448804
 H          3.7078686425        0.6182979734        3.0424302859
 H          6.0440232242       -0.0450691317        2.6000159330
 H          6.7275505634       -0.7525848234        0.3371278758
 H          5.0302299641       -0.7890724803       -1.5012064131
 H          1.4924312860       -2.0639966774       -2.4678227711
 H          2.7971673771       -2.7272388886        0.7619083355
 H          1.3862648012       -3.1241970625        2.7608052520
 H         -1.0409983306       -2.7148444968        2.6579383537
 H         -2.8992469121       -1.8494985188        1.5413448544
 C         -3.3045879498       -2.7749649249       -0.3386223055
 C         -3.6999453610       -4.1028711923        0.2331885449
 C         -4.7364860073       -3.0439524278        0.0105310611
 H         -5.4447363542       -3.1708578787       -0.7941687234
 H         -5.1436505773       -2.5386980654        0.8740838864
 H         -3.6959366032       -4.9637260234       -0.4173862564
 H         -3.4064085157       -4.3170924720        1.2495145588
 H         -3.0513155869       -2.7329163683       -1.3896256774
