  62
        -98.94189609
 C         -1.1960321097       -0.9573780343        0.4014173278
 C         -2.0616815694       -0.6849719702       -0.6811365944
 C         -3.0658345567        0.3788473903       -0.4772669079
 C         -3.0672765250        1.0565157824        0.6856921334
 C         -4.0120178607        2.1425130712        1.1264768994
 C         -5.3871398836        1.5968094166        1.5477722187
 C         -5.9587508653        0.5142588971        0.6354824640
 H         -5.2470455240       -0.3106410537        0.5695403950
 H         -6.8640426178        0.1254338433        1.1090077188
 C         -6.3301884212        0.9774950885       -0.7709819115
 H         -7.0851531789        1.7638676877       -0.7010327040
 H         -6.7834845151        0.1260577646       -1.2848813557
 C         -5.1751266796        1.4922809102       -1.6316853414
 H         -4.8807826880        2.4945928548       -1.3318719699
 H         -5.5443285866        1.5722334496       -2.6584950412
 C         -3.9557249125        0.5764689859       -1.6808674724
 H         -4.2737839767       -0.4269014371       -1.9863211686
 H         -3.2915513215        0.9244051402       -2.4819673630
 H         -6.0860438562        2.4326526082        1.6082600230
 H         -5.2858841531        1.1683040680        2.5478189508
 H         -4.1101700408        2.8886321006        0.3432670308
 H         -3.5500148468        2.6291472793        1.9885790516
 O         -2.1783830054        0.7910664357        1.6854741781
 C         -1.2216445489       -0.1967499654        1.5687716973
 O         -0.4609916554       -0.3026034817        2.5539542836
 O         -2.0128158115       -1.3043905439       -1.7768854254
 C         -0.1357226888       -2.0351580466        0.2789797166
 C          0.8510368218       -1.6809901394       -0.8082615835
 C          1.4114444805       -2.6151141312       -1.6704821474
 C          2.3370384292       -2.2201276761       -2.6212460975
 C          2.7441700152       -0.9015203912       -2.7162300160
 C          2.1931045533        0.0391761377       -1.8537244857
 C          1.2509389822       -0.3567421963       -0.9190152270
 H          0.8081202676        0.3884275563       -0.2764022047
 N          2.5759085266        1.3885576283       -1.9001770972
 S          2.6911597439        2.2509824104       -0.4710297685
 O          1.3797635274        2.6035144588        0.0136559447
 O          3.5590685043        3.3627476913       -0.7988085581
 C          3.5286817910        1.1498130324        0.6559789854
 C          4.8621373016        0.8890279452        0.4009325481
 C          5.5441481326        0.0032979366        1.2176550064
 C          4.8824624208       -0.6109631404        2.2706293035
 C          3.5471303702       -0.3351498605        2.5165876445
 C          2.8589453344        0.5536771891        1.7043184578
 H          1.8174165819        0.7748001587        1.8807298427
 H          3.0228861060       -0.8069235342        3.3326218980
 H          5.4095338600       -1.3056709288        2.9053562133
 H          6.5846471595       -0.2077530522        1.0309338036
 H          5.3433814028        1.3960169315       -0.4195850153
 H          3.3365869309        1.5965235035       -2.5301494437
 H          3.4714785806       -0.5987012036       -3.4535426084
 H          2.7563095492       -2.9533930759       -3.2931329078
 H          1.1180699888       -3.6498260661       -1.6034566865
 H          0.4117807176       -2.0271067297        1.2340757559
 C         -0.7745677844       -3.3961828917        0.0954383682
 C         -0.1099651076       -4.6234451985        0.6408403402
 C         -1.3490221863       -4.0900568203        1.2928362217
 H         -2.2726509229       -4.6372901351        1.1785777401
 H         -1.2535357063       -3.5914781908        2.2468465821
 H         -0.1850362582       -5.5427193651        0.0797627540
 H          0.8278881548       -4.4963157420        1.1600130672
 H         -1.3183965251       -3.4765150927       -0.8384178340
