  62
        -98.93822175
 C         -2.4915073585       -0.6717724774        0.0134431026
 C         -2.9228247436        0.4716769831        0.7343529660
 C         -4.0762411583        1.1959530637        0.1873891911
 C         -4.6375093352        0.7628692547       -0.9559565689
 C         -5.8488992589        1.3692530610       -1.6017276390
 C         -7.1370147605        0.6959689382       -1.1078877086
 C         -7.2277077590        0.5779169770        0.4135464366
 H         -6.4504293474       -0.1045351988        0.7650937265
 H         -8.1896072217        0.1164797718        0.6473956951
 C         -7.1051362582        1.9124081511        1.1623091227
 H         -7.8762080885        1.9526344395        1.9346090425
 H         -7.2901575405        2.7401422389        0.4768040310
 C         -5.7618154105        2.1256646262        1.8627476949
 H         -5.5279323739        1.2543423306        2.4798265088
 H         -5.8605011699        2.9836400728        2.5331626244
 C         -4.5650342500        2.3995504473        0.9430016677
 H         -3.7284805167        2.7180785577        1.5717784919
 H         -4.8076467030        3.2130335010        0.2562401979
 H         -7.1869668512       -0.3093043199       -1.5326076126
 H         -7.9897557021        1.2655003859       -1.4818939930
 H         -5.8758836442        2.4347488546       -1.3819205469
 H         -5.7684097972        1.2315155755       -2.6812380549
 O         -4.1841710186       -0.3194153983       -1.6341359855
 C         -3.1073689136       -1.0704807034       -1.1740958442
 O         -2.8238165535       -2.0329294072       -1.9087600072
 H          0.8546849733       -0.6205046719        1.9679440569
 C          1.0159533624       -0.5745571982        0.8990545265
 C         -0.0087946915       -0.9438677727        0.0402067651
 C          0.2081870548       -0.8609306403       -1.3316314395
 C          1.4252802687       -0.4238856051       -1.8220250644
 C          2.4452349228       -0.0569996848       -0.9612061509
 C          2.2383819451       -0.1314841418        0.4092779211
 N          3.2646880530        0.2545702052        1.2866882946
 S          4.7993812027       -0.3858776521        1.0541291342
 O          4.7348777934       -1.6898485728        0.4365867871
 O          5.4352082861       -0.3180143706        2.3514366842
 C          5.5892563523        0.7736750179       -0.0413712112
 C          6.1404428018        0.3322330289       -1.2282756485
 C          6.7607804860        1.2503653934       -2.0613360335
 C          6.8191049937        2.5859955918       -1.6940365965
 C          6.2627758836        3.0126411892       -0.4971866875
 C          5.6424715639        2.0998583304        0.3407025254
 H          5.2020226786        2.3905348596        1.2798284541
 H          6.3103602280        4.0521497867       -0.2152010912
 H          7.3014398523        3.2987522179       -2.3441787476
 H          7.1943475439        0.9205778197       -2.9917866220
 H          6.0665994018       -0.7149981899       -1.4751824069
 H          3.0038756712        0.2242938884        2.2617394986
 H          3.3939629906        0.2846393575       -1.3414475932
 H          1.5816109914       -0.3671398760       -2.8886543377
 H         -0.5843523189       -1.1493546091       -2.0055858666
 C         -1.3186413670       -1.4358846798        0.6009964047
 H         -1.3314221324       -1.1780174811        1.6723433217
 C         -1.4729332022       -2.9475356688        0.5042411513
 C         -0.6432768970       -3.8186312202       -0.3850943793
 C         -0.4282710571       -3.8473041737        1.0965684607
 H         -0.7455898909       -4.7159684016        1.6533488759
 H          0.4713503003       -3.3843320877        1.4754006779
 H          0.1127426395       -3.3552183561       -0.9987916292
 H         -1.1323190926       -4.6558649383       -0.8588862841
 H         -2.5057128872       -3.2537027164        0.6382620410
 O         -2.3678825188        0.8620149256        1.7974542015
