  62
        -98.94467642
 C          2.0741133513        0.3714705864       -0.1755839204
 C          3.0607827772        0.8661914661        0.7140092966
 C          4.2468643189        0.0211235396        0.8997229752
 C          4.3150425310       -1.1631445527        0.2646784031
 C          5.4827829070       -2.1036247110        0.3279740719
 C          6.4867000634       -1.8203169137       -0.7983580001
 C          6.8734788733       -0.3467828134       -0.9251240566
 H          7.6078748659       -0.2717330831       -1.7300065313
 H          5.9967797697        0.2261700993       -1.2355869053
 C          7.4535278534        0.2698068753        0.3554104180
 H          8.3352679569        0.8579715041        0.0924024888
 H          7.7817970665       -0.5205492824        1.0314145105
 C          6.4981610554        1.2065259544        1.0971163892
 H          6.0945387977        1.9447844638        0.3996487965
 H          7.0728393932        1.7496370349        1.8520421476
 C          5.3242080912        0.5297257581        1.8159223962
 H          5.6975137088       -0.2731844316        2.4548792094
 H          4.8463037896        1.2806331913        2.4518343987
 H          7.3816675333       -2.4196764518       -0.6214953928
 H          6.0446791400       -2.1410612248       -1.7445612621
 H          5.9698133478       -2.0051178586        1.2962264001
 H          5.1088731276       -3.1234302956        0.2217807930
 O          3.3345125403       -1.6209498864       -0.5534347028
 C          2.1947179701       -0.8686829559       -0.8027249679
 O          1.3934498179       -1.4108005483       -1.5875871547
 H         -1.0943610062       -0.3940961695       -1.5311371536
 C         -1.2237691939       -0.2705272190       -0.4678345186
 C         -0.3398185167        0.5211771903        0.2485875649
 C         -0.5183590856        0.6436906707        1.6241349542
 C         -1.5473386153       -0.0194162402        2.2656709400
 C         -2.4186715797       -0.8222518695        1.5502228741
 C         -2.2485204450       -0.9509053699        0.1781969732
 N         -3.1247190513       -1.7676684809       -0.5532177209
 S         -4.7611984715       -1.6773967448       -0.2325438360
 O         -5.0732660803       -2.4525810138        0.9428822198
 O         -5.4117075497       -2.0960849185       -1.4543509782
 C         -5.0793884677        0.0498636457        0.0837674283
 C         -5.5504357403        0.4507350573        1.3171504074
 C         -5.7621084804        1.8008166675        1.5476149657
 C         -5.4971515385        2.7217997493        0.5463851149
 C         -5.0273411321        2.3029774685       -0.6892437979
 C         -4.8145256974        0.9547889868       -0.9252040235
 H         -4.4555186431        0.5957947061       -1.8762876413
 H         -4.8235751938        3.0212141490       -1.4671230411
 H         -5.6583913602        3.7726341267        0.7282673001
 H         -6.1292581144        2.1290515443        2.5066440093
 H         -5.7425027598       -0.2985946454        2.0677293512
 H         -2.9298543362       -1.8035450674       -1.5422299434
 H         -3.2145478288       -1.3635365626        2.0354642446
 H         -1.6714408402        0.0839302907        3.3328737883
 H          0.1722221964        1.2572990724        2.1854929153
 C          0.8303997242        1.2162185873       -0.4015281937
 H          1.0151460980        2.1508911317        0.1448786773
 C          0.6189744605        1.5421769571       -1.8648006589
 C         -0.3233939306        2.6454005443       -2.2403368926
 C          1.1537965448        2.8308657846       -2.4105442221
 H          1.5631201389        2.8356434820       -3.4097997342
 H          1.6695564840        3.4879938176       -1.7257935545
 H         -0.8100931151        3.1764070116       -1.4365716238
 H         -0.9306473445        2.5274490827       -3.1246934625
 H          0.6720539345        0.6747971372       -2.5114438625
 O          2.9537523663        1.9644812494        1.3218479454
