  62
        -98.94523685
 C         -0.9574319989       -1.5349617280       -0.6599759801
 C         -2.1804943216       -1.7934065257        0.0140285634
 C         -3.2253216354       -0.7737008444       -0.1147555428
 C         -2.9946971699        0.3226429598       -0.8593574117
 C         -3.9681297228        1.4420018314       -1.1124011220
 C         -4.0147319452        2.4988211474       -0.0006289841
 C         -4.6879466372        2.0531378950        1.2977042262
 H         -4.8474233327        2.9492389347        1.9007223915
 H         -5.6694821068        1.6337877910        1.0747767060
 C         -3.8687482700        1.0458668188        2.1168277140
 H         -3.8586653990        1.3497715151        3.1659221608
 H         -2.8323819700        1.0502606661        1.7709763827
 C         -4.3977275753       -0.3873057803        2.0657115690
 H         -3.7230137869       -1.0238254617        2.6439518131
 H         -5.3847232475       -0.4320714941        2.5317844448
 C         -4.4997128239       -0.9691703841        0.6498475384
 H         -4.6757080238       -2.0445469378        0.7326730841
 H         -5.3364921450       -0.5183300561        0.1165240612
 H         -4.5631951542        3.3585598179       -0.3922941797
 H         -2.9941245603        2.8182105546        0.2150038193
 H         -3.6476236863        1.9271426828       -2.0366070322
 H         -4.9657207369        1.0288205147       -1.2658665702
 O         -1.8216069307        0.5239559527       -1.5121993979
 C         -0.7725783978       -0.3822613748       -1.4245174391
 O          0.2313936081       -0.0341985582       -2.0763376943
 H          1.5868906487       -0.3040445019       -0.2456172485
 C          1.7484414895       -0.9755037513        0.5821202592
 C          1.0857126344       -2.1947444129        0.6168409046
 C          1.3136291843       -3.0517546909        1.6869168318
 C          2.1921720253       -2.6974481528        2.6954446064
 C          2.8568293927       -1.4857825175        2.6546075047
 C          2.6287480424       -0.6165504316        1.5920542517
 N          3.2461988510        0.6376200186        1.5581263453
 S          3.4959483157        1.4853193203        0.1433077529
 O          3.9385915184        0.6260294794       -0.9295014974
 O          4.4301220396        2.5251197258        0.5290436022
 C          1.9364768974        2.2537793027       -0.2327079983
 C          1.0989663066        2.6253697513        0.7998267860
 C         -0.0759214917        3.2945354671        0.4987696650
 C         -0.3880418461        3.5859418909       -0.8204464216
 C          0.4628191739        3.2042566821       -1.8442585752
 C          1.6375222793        2.5313834271       -1.5503232843
 H          2.3156113497        2.2001898711       -2.3202751303
 H          0.2122088201        3.4162846370       -2.8712049912
 H         -1.3015142094        4.1101860140       -1.0552894372
 H         -0.7427517260        3.5867328397        1.2953993224
 H          1.3681529461        2.3816004626        1.8145905599
 H          3.9594155777        0.8046425790        2.2513326200
 H          3.5427851935       -1.2073705357        3.4398794010
 H          2.3627463684       -3.3715718744        3.5210092612
 H          0.7885354289       -3.9944723418        1.7301949888
 C          0.1342406639       -2.5774183149       -0.4923139783
 H         -0.3886531991       -3.4933395044       -0.1834384108
 C          0.9094409191       -2.8755133018       -1.7604252546
 C          1.5364081464       -4.2257965249       -1.9289334994
 C          0.3459717879       -3.8429645932       -2.7553713801
 H          0.4861112513       -3.6397798786       -3.8063341158
 H         -0.6045137711       -4.3008082548       -2.5221885020
 H          1.3924581522       -4.9487640540       -1.1402520198
 H          2.5001204666       -4.2871656787       -2.4109532380
 H          1.4488129044       -2.0199966615       -2.1468180215
 O         -2.3911128800       -2.8394276250        0.6849712916
