  62
        -98.93683851
 C          2.3551701376       -1.0617478607       -0.3646924887
 C          2.5408611417        0.0190940089        0.5265538253
 C          3.5483269033        1.0337003236        0.1483723689
 C          4.2140551595        0.8948816672       -1.0124955681
 C          5.2937180960        1.7734203074       -1.5863150823
 C          6.6517008863        1.5704438526       -0.8956682385
 C          6.5917975167        1.4979020656        0.6277072398
 H          5.9318734046        0.6797913799        0.9219428120
 H          7.5939655707        1.2511659742        0.9881354404
 C          6.1486637899        2.7831286149        1.3226878743
 H          6.8298471428        3.5918460245        1.0487471974
 H          6.2448360074        2.6191337726        2.3991059017
 C          4.7151445634        3.2376521874        1.0392098846
 H          4.4635868271        4.0003762639        1.7821298374
 H          4.6394455251        3.7182018194        0.0675787315
 C          3.6616079886        2.1419861881        1.1681871720
 H          3.7755996902        1.6487469987        2.1403582919
 H          2.6717269558        2.6134491507        1.2002770728
 H          7.3171417801        2.3806875874       -1.1982932537
 H          7.0772989211        0.6311086742       -1.2570398740
 H          5.3942874466        1.4968532844       -2.6381674198
 H          4.9902468328        2.8151969872       -1.5458989570
 O          3.9972364332       -0.1610977541       -1.8470616001
 C          3.0851564367       -1.1510975278       -1.5545081294
 O          3.0126839062       -2.0519714107       -2.4141720788
 H         -0.1794298182       -0.3801229147        1.1703216824
 C         -0.6979538114       -0.8247571705        0.3338461349
 C         -0.0424215904       -1.7655679158       -0.4472789396
 C         -0.7156783540       -2.3126860209       -1.5334983076
 C         -2.0106635594       -1.9238634633       -1.8277871800
 C         -2.6586847938       -0.9811566469       -1.0497043233
 C         -1.9942479471       -0.4272985500        0.0366901388
 N         -2.6280633135        0.5519259850        0.8189366001
 S         -4.1984263146        0.2855453642        1.3412410974
 O         -4.3482690344        1.0993142186        2.5277748691
 O         -4.4784752046       -1.1238539998        1.4899520970
 C         -5.2007174183        0.9734975883        0.0398350223
 C         -4.9701138834        2.2828869789       -0.3341604548
 C         -5.7470550823        2.8389970917       -1.3376513873
 C         -6.7380887971        2.0818265405       -1.9446867319
 C         -6.9597303352        0.7698230302       -1.5554300529
 C         -6.1850696195        0.2072412389       -0.5527493907
 H         -6.3180506642       -0.8103504136       -0.2212887545
 H         -7.7308940806        0.1831805458       -2.0283492315
 H         -7.3411470300        2.5173478299       -2.7256889355
 H         -5.5776056386        3.8590601766       -1.6429733701
 H         -4.1926070751        2.8377393527        0.1642640363
 H         -2.0484254764        0.9066163737        1.5659402230
 H         -3.6671651728       -0.6744887756       -1.2745306279
 H         -2.5209043206       -2.3576700218       -2.6742610679
 H         -0.2108024211       -3.0389506708       -2.1541108219
 C          1.3688628109       -2.1941755585       -0.1208891589
 H          1.6491966154       -2.9823675841       -0.8323370169
 C          1.4577320632       -2.7656942019        1.2812612900
 C          0.9258544381       -4.1423265007        1.5371765218
 C          2.4038445419       -3.8938029941        1.5553437837
 H          2.9205827242       -3.9138620549        2.5031965745
 H          2.9934532781       -4.2639429821        0.7290297336
 H          0.4231004874       -4.3347302849        2.4727022171
 H          0.5129595857       -4.6821994040        0.6983727873
 H          1.3327386936       -2.0249515945        2.0598373202
 O          1.9117503807        0.1629967443        1.6107997192
