  62
        -98.94045133
 C         -1.8392185305       -1.1260243592        0.1728424211
 C         -2.1559043105       -0.0681886297       -0.7163255696
 C         -3.5917364504        0.2030350703       -0.9038385298
 C         -4.5020439805       -0.5419536593       -0.2532158793
 C         -5.9869118205       -0.3342574193       -0.3122308595
 C         -6.4585054904        0.6112711714        0.8014858700
 C         -5.6448937504        1.9016251814        0.9033899792
 H         -6.0879349604        2.5031097319        1.7001574888
 H         -4.6259284804        1.6588889616        1.2140028094
 C         -5.5955633804        2.7252053706       -0.3911182413
 H         -6.4017227704        2.4165175303       -1.0577657211
 H         -5.7638153903        3.7756264408       -0.1442723119
 C         -4.2632737104        2.6522336301       -1.1396458912
 H         -3.4427030704        2.8717712205       -0.4514717714
 H         -4.2620595603        3.4307259497       -1.9073869617
 C         -3.9626334804        1.3201981397       -1.8381361804
 H         -4.8094019804        1.0341263094       -2.4655055803
 H         -3.0925665104        1.4743888893       -2.4832492605
 H         -7.5082185904        0.8540410313        0.6266381398
 H         -6.3859528705        0.0851807320        1.7561936603
 H         -6.2544881704        0.0718728401       -1.2857568897
 H         -6.4752791605       -1.3019638492       -0.1854636289
 O         -4.1615881605       -1.5522101788        0.5866042613
 C         -2.8337839005       -1.8517921087        0.8371395715
 O         -2.6671595806       -2.7737597382        1.6598997820
 H          1.3487742395       -0.0848419800       -1.0307775395
 C          1.2480244896        0.3276356606       -0.0388699598
 C          0.3833058695       -0.2671806288        0.8661088306
 C          0.2475861495        0.3027245519        2.1277986502
 C          0.9650349996        1.4324637621        2.4779122596
 C          1.8305613096        2.0212140615        1.5721302492
 C          1.9575095996        1.4688497308        0.3062383795
 N          2.8672496396        2.0528579402       -0.6110646708
 S          4.4648509896        1.6696744303       -0.2809037206
 O          4.8397169496        2.2896067211        0.9640095991
 O          5.2250372496        2.0565228996       -1.4476620908
 C          4.4569565895       -0.1058524796       -0.1033034395
 C          4.6282603495       -0.8890616902       -1.2272057090
 C          4.5143002295       -2.2649201502       -1.1094515682
 C          4.2168000594       -2.8293349894        0.1217689922
 C          4.0451639795       -2.0287408087        1.2408035817
 C          4.1641501195       -0.6527558988        1.1301453608
 H          4.0375699495        0.0029187617        1.9760854804
 H          3.8099097494       -2.4702096981        2.1959454019
 H          4.1168851794       -3.8999561394        0.2104232128
 H          4.6488684595       -2.8914558507       -1.9766644478
 H          4.8565825895       -0.4097201908       -2.1658522293
 H          2.6585502396        1.8075419596       -1.5693732907
 H          2.4140675296        2.8905608317        1.8286212887
 H          0.8510054796        1.8577698727        3.4635830093
 H         -0.4312909505       -0.1531350576        2.8357624605
 C         -0.4065072105       -1.5020583890        0.5167904813
 H         -0.4902569706       -2.1172395585        1.4265328417
 C          0.2981448995       -2.3623583997       -0.5226294282
 C         -0.4339682706       -3.4752715200       -1.2090847875
 C          0.0123051095       -2.2776804005       -1.9903775382
 H          0.8390722995       -2.3944167510       -2.6761009181
 H         -0.7325431205       -1.5724716207       -2.3233709087
 H          0.0779705194       -4.4129316502       -1.3624754069
 H         -1.4874888206       -3.5817218499       -0.9940237375
 H          1.3284554594       -2.5603714995       -0.2410420580
 O         -1.3047866504        0.6208706999       -1.3348604400
