  62
        -98.94041223
 C          1.1336818216        1.4308278701        0.5766391985
 C          1.7326550408        0.9929909092       -0.6321714315
 C          2.9243114506        0.1366435589       -0.4828629217
 C          3.3105099410       -0.2566156806        0.7432122283
 C          4.5318813809       -1.0779712309        1.0419186081
 C          4.2391847703       -2.5835841508        1.0415698790
 C          3.4599212995       -3.0517729012       -0.1857257803
 H          3.3194914292       -4.1305853111       -0.0908494497
 H          2.4743410297       -2.5856738808       -0.1700059901
 C          4.1295934590       -2.7341880721       -1.5290395108
 H          5.1846158991       -2.5039110024       -1.3767045115
 H          4.0810163983       -3.6200042624       -2.1655698504
 C          3.4657595590       -1.5909068722       -2.2988164011
 H          3.8572286585       -1.5955209929       -3.3194349913
 H          2.3885691989       -1.7637194519       -2.3601266905
 C          3.6967932498       -0.1843018820       -1.7327090519
 H          4.7657539400       -0.0267965724       -1.5698701025
 H          3.3556833297        0.5333837177       -2.4847064621
 H          5.1883167901       -3.1189801912        1.1046207888
 H          3.6560117706       -2.8247464602        1.9335639595
 H          5.2959230406       -0.8491170616        0.3005355976
 H          4.9008996714       -0.7884917206        2.0277387378
 O          2.6068166917        0.0471803002        1.8655033585
 C          1.5278523420        0.9151523406        1.8149462186
 O          1.0075712126        1.1402629813        2.9268885488
 O          1.3373956904        1.3154431288       -1.7797608615
 C          0.0382783920        2.4839460705        0.6179636985
 C         -1.0689545886        2.2008728904       -0.3649559508
 C         -1.1338764390        2.7984938198       -1.6174632110
 C         -2.1737594196        2.4984475798       -2.4781266604
 C         -3.1685799397        1.6112579303       -2.1077629294
 C         -3.1221793093        1.0214387309       -0.8495107392
 C         -2.0736830288        1.3182634910        0.0086527102
 H         -2.0516915584        0.8738669415        0.9922377304
 N         -4.1457727594        0.1597332815       -0.4348943582
 S         -3.9333121193       -1.0074143580        0.7297545823
 O         -5.0927169497       -1.8603611176        0.5828619433
 O         -3.7564888484       -0.3998572974        2.0245257519
 C         -2.4740261098       -1.9177646487        0.2612589720
 C         -2.5239350507       -2.6617973293       -0.9014791876
 C         -1.4115274012       -3.3953368599       -1.2775145478
 C         -0.2729266508       -3.3756273999       -0.4864478283
 C         -0.2382272999       -2.6227329594        0.6766924313
 C         -1.3472321894       -1.8838396688        1.0557897114
 H         -1.3482159788       -1.2894160783        1.9567127411
 H          0.6443641004       -2.6020351494        1.2976458008
 H          0.5906430689       -3.9536196704       -0.7758837285
 H         -1.4334102118       -3.9825272204       -2.1813380975
 H         -3.4332002510       -2.6702512093       -1.4799764171
 H         -4.8060015799       -0.1104657686       -1.1475280078
 H         -3.9814566001        1.3831222103       -2.7798939089
 H         -2.2100319699        2.9601282493       -3.4530894806
 H         -0.3555997489        3.4782352994       -1.9223579618
 H         -0.3907958976        2.4038380612        1.6300312088
 C          0.5661346924        3.9081199802        0.4828757776
 C          1.8274599029        4.3237516701        1.1780598667
 C          1.7804398822        4.2649055694       -0.3178609732
 H          1.7722859222        5.1956735591       -0.8658584337
 H          2.3118972216        3.4700993089       -0.8168574031
 H          1.8577803335        5.2897819404        1.6589933762
 H          2.3797914229        3.5575827002        1.7034536769
 H         -0.2431105873        4.6322865105        0.4824874076
