  62
        -98.94608213
 C          0.9939677782        1.6292340112        0.6264196386
 C          1.7793125312        1.5305351091       -0.5471393559
 C          2.8912989395        0.5707091550       -0.4929159717
 C          3.0834975024       -0.1550639863        0.6235782253
 C          4.1795003029       -1.1638471863        0.8093693068
 C          3.7343238866       -2.5731491988        0.3974354097
 C          3.0389524481       -2.6301077066       -0.9621269911
 H          2.7887184677       -3.6745969242       -1.1567495244
 H          2.0965276522       -2.0801375524       -0.9051386479
 C          3.8787811917       -2.0849353474       -2.1257116215
 H          4.9311411257       -2.0530399911       -1.8407217517
 H          3.7926268994       -2.7710019052       -2.9707949574
 C          3.4506095595       -0.7054432994       -2.6292244722
 H          3.9551151658       -0.5198006994       -3.5812826308
 H          2.3748897437       -0.7019007434       -2.8231428021
 C          3.7764872828        0.4731490859       -1.7033017720
 H          4.8281392012        0.4328923908       -1.4117263810
 H          3.6118430680        1.3953866229       -2.2682203494
 H          3.0410336688       -2.9467292365        1.1521828487
 H          4.6121705971       -3.2216786406        0.3871665320
 H          5.0428900312       -0.8577175356        0.2214243615
 H          4.4582115508       -1.1740474382        1.8645973524
 O          2.2758077096       -0.0682412576        1.7121545318
 C          1.2142124160        0.8215233119        1.7412506448
 O          0.5520721031        0.7983623176        2.7995038436
 H         -1.2957637520        0.2738140366        0.3124760916
 C         -1.6745625609        0.9971987086       -0.3944717459
 C         -1.1805272679        2.2958699767       -0.3640325560
 C         -1.6731104557        3.2167563439       -1.2784525320
 C         -2.6319443660        2.8374507034       -2.2022554587
 C         -3.1382064532        1.5513382639       -2.2125866679
 C         -2.6583945421        0.6233665449       -1.2939702326
 N         -3.1516817338       -0.6894845880       -1.2697507049
 S         -3.3976639039       -1.4757559195        0.1894018350
 O         -4.4676242576       -2.4117597523       -0.0873492413
 O         -3.6322102795       -0.5414099204        1.2640272960
 C         -1.9051734637       -2.4065985642        0.4602280075
 C         -1.0735333134       -2.1113973546        1.5211214206
 C          0.0541903121       -2.8916014341        1.7254944834
 C          0.3252243332       -3.9513069364        0.8744603497
 C         -0.5166652832       -4.2313095727       -0.1915435516
 C         -1.6427074965       -3.4538452002       -0.4022148178
 H         -2.3323722219       -3.6480009319       -1.2066608688
 H         -0.2996051292       -5.0542896224       -0.8530410849
 H          1.1950397156       -4.5659707115        1.0451224038
 H          0.7107184027       -2.6554797720        2.5487025726
 H         -1.3069278477       -1.2816593297        2.1718911893
 H         -3.9024433932       -0.8712878868       -1.9199938033
 H         -3.8978386063        1.2630008717       -2.9232644174
 H         -3.0000709068        3.5589222103       -2.9159652064
 H         -1.3037720039        4.2288347267       -1.2738652740
 C         -0.1493741311        2.6258899546        0.6879150885
 H         -0.6250932357        2.4843481114        1.6702388409
 C          0.3816485110        4.0414996985        0.6038102425
 C         -0.3853099704        5.1702600239        1.2220901585
 C          0.8905971835        4.6980897864        1.8503192903
 H          1.7648806469        5.3278970228        1.7823042293
 H          0.8312158604        4.1319695360        2.7688967389
 H         -0.3858697852        6.1283901779        0.7246795055
 H         -1.3135152608        4.9304552692        1.7189153784
 H          0.9217903233        4.2310064060       -0.3163735630
 O          1.5749568814        2.2177339648       -1.5814442168
