  62
        -98.94630396
 C         -2.5749920003       -0.0040877191       -0.4178011712
 C         -2.1796600409       -0.5762609991        0.8155809290
 C         -1.8767320311       -2.0124324692        0.7833082292
 C         -1.9722895008       -2.6908734692       -0.3747487208
 C         -1.7569614310       -4.1692185493       -0.5598020306
 C         -0.2887747910       -4.5781797296       -0.7343189099
 C          0.5535172385       -4.5221281797        0.5401093204
 H          0.0419980780       -5.0600986495        1.3391441802
 H          1.4858637885       -5.0510001898        0.3329789409
 C          0.8900109886       -3.0999683697        1.0076191705
 H          0.7471306790       -2.3930020297        0.1863193304
 H          1.9470911884       -3.0412273999        1.2796142610
 C          0.0954509681       -2.6113773295        2.2188118901
 H          0.3691981376       -3.1993970895        3.0986608903
 H          0.3839518882       -1.5724501295        2.3995024302
 C         -1.4283516718       -2.6681960792        2.0542136595
 H         -1.7706875720       -3.7032033592        2.0885232194
 H         -1.8808258221       -2.1202734791        2.8849064492
 H         -0.2785264610       -5.6043543696       -1.1094546399
 H          0.1647471895       -3.9378006697       -1.4946405198
 H         -2.3019735406       -4.4478171392       -1.4644709808
 H         -2.1872204414       -4.7077068492        0.2854476692
 O         -2.3292385302       -2.0966708192       -1.5451610009
 C         -2.6179553999       -0.7433241992       -1.5982966611
 O         -2.9093313993       -0.3238990692       -2.7387101713
 O         -2.1079580112        0.0726872909        1.8927128190
 C         -2.9177150599        1.4719093109       -0.4961524214
 C         -1.7483141500        2.3128540707       -0.0426438209
 C         -1.8970189101        3.4938088808        0.6743975490
 C         -0.7854619001        4.2228987106        1.0596524694
 C          0.4903666099        3.7859723304        0.7543141100
 C          0.6491450800        2.6121217103        0.0271095101
 C         -0.4666753899        1.9011904605       -0.3817995303
 H         -0.3321419398        0.9914796104       -0.9485149502
 N          1.9314226001        2.1353619800       -0.3182016293
 S          2.2119578297        0.4891517200       -0.0326315791
 O          1.5809872700       -0.2883900699       -1.0695443193
 O          1.8651057290        0.1675897401        1.3322274908
 C          3.9819767597        0.4347109897       -0.2432644083
 C          4.8027420093        0.3856580996        0.8671580920
 C          6.1770048593        0.3779239093        0.6850383526
 C          6.7035017799        0.4229977991       -0.5969360972
 C          5.8665436604        0.4712244092       -1.7022115175
 C          4.4919878803        0.4774441895       -1.5269340681
 H          3.8013748207        0.5058214696       -2.3537732784
 H          6.2790529708        0.5035435491       -2.6976971873
 H          7.7729577300        0.4180720889       -0.7363070567
 H          6.8297413990        0.3371704392        1.5420726629
 H          4.3466661088        0.3452516297        1.8433754218
 H          2.6613794600        2.6792715299        0.1254459910
 H          1.3566579999        4.3448848802        1.0753388603
 H         -0.9144909002        5.1369761907        1.6192748093
 H         -2.8834351101        3.8386426010        0.9386317585
 H         -3.0964452294        1.6857047909       -1.5611740015
 C         -4.1899967602        1.7534971912        0.2783186181
 C         -5.1374400298        2.8219622514       -0.1759809024
 C         -5.5046672300        1.3781223814       -0.3346169225
 H         -6.2714981104        0.9641798116        0.3026022172
 H         -5.4809162697        0.9477423614       -1.3255246825
 H         -5.6581608201        3.4008239815        0.5719407073
 H         -4.8776859693        3.3764643313       -1.0651060723
 H         -4.0691185107        1.5908375312        1.3433012981
