  62
        -98.93971734
 C          1.7253871639        1.5626242578        0.1637759071
 C          1.5507894255        0.2310707269       -0.2792685140
 C          2.6084440644       -0.7273326107        0.0951427929
 C          3.6649996450       -0.3031671966        0.8128771477
 C          4.8633480058       -1.0490427685        1.3626068709
 C          5.1860377131       -2.4650637906        0.8929970688
 C          5.6419090492       -2.5675882193       -0.5624002125
 H          6.6327744270       -2.1141998416       -0.6479996207
 H          5.7384572759       -3.6252761134       -0.8170549409
 C          4.7362201851       -1.8895379171       -1.5873968908
 H          4.7049560292       -0.8151610266       -1.3948752456
 H          5.1880616169       -2.0260193683       -2.5737852541
 C          3.3071236229       -2.4244455250       -1.6520122967
 H          2.8239844556       -1.9656242112       -2.5187464200
 H          3.3269670046       -3.5040689625       -1.8125467635
 C          2.4327364508       -2.1258102560       -0.4222102420
 H          1.3846777126       -2.2035354123       -0.7243661647
 H          2.6033920291       -2.8514249390        0.3690108843
 H          4.3427430255       -3.1238612335        1.0772096316
 H          6.0077558820       -2.8207189494        1.5206539212
 H          5.7277080593       -0.4040158418        1.1744686071
 H          4.7265253218       -1.0677246688        2.4495262657
 O          3.7827431407        0.9948879781        1.2235522554
 C          2.8300425867        1.9492367373        0.9204751502
 O          3.0756898514        3.0855248784        1.3735527026
 H         -1.6352058909        1.7999990499       -1.4123742178
 C         -1.7036328541        1.7691871786       -0.3368134852
 C         -0.6316445850        2.1788377277        0.4379589853
 C         -0.7477978174        2.1143366634        1.8241592823
 C         -1.9079846960        1.6533515735        2.4158765002
 C         -2.9735466773        1.2333460060        1.6380386043
 C         -2.8630528752        1.2845194737        0.2556321695
 N         -3.9322791184        0.8444767515       -0.5471418529
 S         -4.5816491729       -0.6675909570       -0.2386128559
 O         -5.3143089066       -1.0102991440       -1.4369441403
 O         -5.3518859995       -0.6127076140        0.9790615489
 C         -3.1913885275       -1.7641386672       -0.0323197512
 C         -2.7584537398       -2.0903558833        1.2364138326
 C         -1.6577408468       -2.9202718662        1.3736685109
 C         -1.0149183417       -3.4079793249        0.2471256058
 C         -1.4608770132       -3.0687038140       -1.0206071662
 C         -2.5564322581       -2.2346573640       -1.1639831437
 H         -2.9368858144       -1.9554301035       -2.1334340775
 H         -0.9549265459       -3.4454136065       -1.8951681764
 H         -0.1606598596       -4.0574982439        0.3575334793
 H         -1.3041795159       -3.1825654142        2.3580872347
 H         -3.2914822038       -1.7010369240        2.0881274866
 H         -3.7524125488        0.9438280229       -1.5361020925
 H         -3.8836992896        0.8629322625        2.0810251034
 H         -1.9844141755        1.6150708423        3.4920972857
 H          0.0927351980        2.4242999191        2.4306054543
 C          0.6829352205        2.6212633879       -0.1548921752
 H          1.0068119375        3.5339831538        0.3636674544
 C          0.6344011038        2.8962964235       -1.6427897838
 C          0.0302624846        4.1723937221       -2.1447370140
 C          1.5130800361        3.9663647505       -2.2140087421
 H          1.9668068257        3.7998352237       -3.1795923709
 H          2.1410805411        4.5146315625       -1.5268893070
 H         -0.5334566516        4.1522687403       -3.0652100946
 H         -0.3514675162        4.8656140920       -1.4105496970
 H          0.5005065278        1.9989684068       -2.2353832076
 O          0.5612193575       -0.1518686466       -0.9552464320
