  62
        -98.93766796
 C         -1.7974584373       -0.5482091136       -0.1652419328
 C         -2.9244885578       -1.1846921329        0.4047923899
 C         -4.2348383399       -0.8289473773       -0.1638143190
 C         -4.2952983045        0.0557076433       -1.1739938275
 C         -5.5101402985        0.5342359182       -1.9295077957
 C         -6.7697663915        0.8593615347       -1.1148844894
 C         -6.5078025145        1.4235367145        0.2891734090
 H         -5.4543735992        1.6886080300        0.3952823239
 H         -7.0879448918        2.3393421581        0.4173656976
 C         -6.9065551721        0.4549286030        1.4052763744
 H         -7.8678255515        0.0037881021        1.1498161140
 H         -7.0470842451        1.0220258277        2.3286553860
 C         -5.8977116875       -0.6533290576        1.7040987089
 H         -5.0100065066       -0.2277845613        2.1797243787
 H         -6.3514349262       -1.3352127814        2.4272503004
 C         -5.4282700383       -1.4673655276        0.4873035619
 H         -5.0889169958       -2.4423841016        0.8472565173
 H         -6.2389198876       -1.6215920490       -0.2204844238
 H         -7.3424919601        1.5833942666       -1.6969251292
 H         -7.3886311574       -0.0326693309       -1.0288538974
 H         -5.7571853149       -0.2165613618       -2.6858104359
 H         -5.1776337776        1.4285015916       -2.4622277681
 O         -3.1807562397        0.6441797508       -1.6956327214
 C         -1.9121358512        0.3675827065       -1.2092933336
 O         -0.9961257191        0.9899202971       -1.7803207307
 O         -2.8401090355       -2.0181998512        1.3460473944
 C         -0.4181303592       -0.8764245310        0.3748311830
 C          0.2811539901        0.3759969381        0.8400854528
 C         -0.4103077931        1.2752354708        1.6481766661
 C          0.1910419115        2.4384285251        2.0860931277
 C          1.4974130214        2.7280165414        1.7336014888
 C          2.2041517449        1.8290425921        0.9439168032
 C          1.5986352832        0.6561513162        0.5119751606
 H          2.1585466880       -0.0192199063       -0.1122767615
 N          3.5440393624        2.0754994499        0.6280865297
 S          4.3318416497        1.3846429738       -0.6667863697
 O          5.5639884190        2.1395963692       -0.7655529494
 O          3.5224338177        1.3465409996       -1.8617156825
 C          4.7147006103       -0.2692438217       -0.1262279262
 C          4.7635878954       -1.2776218101       -1.0682367306
 C          5.1078945126       -2.5587177722       -0.6656074473
 C          5.3937210749       -2.8089367171        0.6674536133
 C          5.3408365284       -1.7854161162        1.6010741234
 C          5.0036871874       -0.5012728445        1.2038980240
 H          4.9534514370        0.3148501736        1.9049318538
 H          5.5619022698       -1.9837568515        2.6374309790
 H          5.6574934047       -3.8072036101        0.9790112976
 H          5.1498635956       -3.3551378232       -1.3917330297
 H          4.5200944163       -1.0413517289       -2.0923219239
 H          3.8935153367        2.9923516722        0.8602782848
 H          1.9659352845        3.6417546553        2.0655955065
 H         -0.3622236668        3.1306592045        2.7029833469
 H         -1.4339393820        1.0536530550        1.9182604737
 H         -0.5952076318       -1.5176455884        1.2517235472
 C          0.3722111229       -1.6646983843       -0.6484734622
 C          1.3916771040       -2.6691369514       -0.2032678223
 C          0.0970820569       -3.1297223370       -0.8007903228
 H          0.1061838028       -3.5549370837       -1.7931647531
 H         -0.6457711145       -3.5624421757       -0.1468054148
 H          2.2945989091       -2.7781410953       -0.7846172125
 H          1.5344750698       -2.7977945730        0.8588343476
 H          0.5714636999       -1.0944891064       -1.5501484501
