  62
        -98.94121214
 C          2.1817645965        0.7441763954       -0.3507668022
 C          3.2370754007        0.7192212867        0.5992425892
 C          3.8846055304       -0.5780423693        0.8261143773
 C          3.4320463832       -1.6595872505        0.1665485861
 C          4.0220632310       -3.0357983731        0.2657966638
 C          5.1049721322       -3.2556114151       -0.7999934016
 C          6.1384672107       -2.1314721022       -0.8714713313
 H          6.8680954210       -2.4092607210       -1.6350935508
 H          5.6473017946       -1.2174968496       -1.2130858135
 C          6.8646839643       -1.8512977820        0.4515821393
 H          6.7488043606       -2.7011185868        1.1251594581
 H          7.9320016179       -1.7414969006        0.2485799207
 C          6.4138097448       -0.5751776305        1.1647758882
 H          6.4380428785        0.2638017215        0.4648760670
 H          7.1315623090       -0.3585619759        1.9603639684
 C          5.0218244888       -0.6259369855        1.8074778824
 H          4.9422951012       -1.5086575839        2.4454000763
 H          4.9121534469        0.2625736109        2.4360977098
 H          5.6071094654       -4.2018713534       -0.5907283510
 H          4.6189966589       -3.3366560724       -1.7750070810
 H          4.4422474258       -3.1729677279        1.2603622449
 H          3.2225000728       -3.7634817746        0.1163331721
 O          2.4015045404       -1.6064508272       -0.7126442029
 C          1.7546255417       -0.4133632903       -1.0015082286
 O          0.8437459056       -0.5389969127       -1.8449029238
 H         -0.8252797327        0.8365414413       -1.1813587999
 C         -0.9047053241        1.4384063307       -0.2884354401
 C          0.2021103493        2.1493826225        0.1529128578
 C          0.0928362891        2.8841445245        1.3281357233
 C         -1.0950384069        2.9067872330        2.0376404951
 C         -2.1969993373        2.1975526222        1.5935539858
 C         -2.0926124448        1.4494455912        0.4282880603
 N         -3.2064526116        0.7126332821       -0.0409624834
 S         -3.7671345965       -0.5213346343        0.9695656463
 O         -4.1756611562        0.0592288092        2.2232065714
 O         -2.7932195752       -1.5905218918        1.0525488905
 C         -5.1985495937       -1.0570559063        0.0545498906
 C         -6.3670335156       -0.3293316427        0.1726396890
 C         -7.4746696260       -0.7177244155       -0.5636192125
 C         -7.3951799658       -1.8199769329       -1.4018461591
 C         -6.2153090748       -2.5404151569       -1.5095366828
 C         -5.1031682873       -2.1560901196       -0.7766789942
 H         -4.1672413463       -2.6901957620       -0.8244150323
 H         -6.1561525846       -3.3979145632       -2.1605045167
 H         -8.2583818338       -2.1213280548       -1.9739708097
 H         -8.3943802206       -0.1612859989       -0.4821706484
 H         -6.3832620591        0.5148002260        0.8416746461
 H         -2.9928972761        0.2913685219       -0.9374900167
 H         -3.1205430873        2.1923713996        2.1481444977
 H         -1.1644925910        3.4824580820        2.9483563913
 H          0.9554372813        3.4232302097        1.6929783150
 C          1.5129043461        2.0883465357       -0.5944835473
 H          2.1874361604        2.8277582333       -0.1423647505
 C          1.3506947774        2.4220586128       -2.0637919555
 C          1.1039128684        3.8460967092       -2.4593867631
 C          2.4234211804        3.2025630172       -2.7597942330
 H          2.6573881720        2.9544570747       -3.7842101025
 H          3.2820601271        3.5021679524       -2.1767094394
 H          0.4291336724        4.0433777504       -3.2779737489
 H          1.0669689720        4.5824434648       -1.6709089468
 H          0.8562331458        1.6466411484       -2.6338406392
 O          3.6235444847        1.7425561571        1.2245667025
