  62
        -98.94532252
 C         -1.7167591662       -1.1545014654       -0.7716262757
 C         -2.8634475571       -0.6588485073       -0.0978460473
 C         -3.2583475454        0.7218986161       -0.3961095103
 C         -2.5435493898        1.4286883522       -1.2895462591
 C         -2.7982260516        2.8612661035       -1.6571474523
 C         -1.9698479641        3.8120050730       -0.7825770887
 C         -2.0685359290        3.5195000715        0.7148300712
 H         -1.5846193843        2.5608173529        0.9206552973
 H         -1.4797501009        4.2811131941        1.2320137921
 C         -3.4996857496        3.5142054591        1.2710349769
 H         -4.1648563083        4.0381894775        0.5832885501
 H         -3.5070911498        4.0659148211        2.2135610285
 C         -4.0678521050        2.1245057319        1.5660940550
 H         -4.9727779397        2.2481300926        2.1674152341
 H         -3.3496803043        1.5581802095        2.1654352695
 C         -4.4419914147        1.2813679653        0.3404990459
 H         -5.0137136430        0.4172978937        0.6917288151
 H         -5.0761000229        1.8653231773       -0.3296786380
 H         -2.2951754405        4.8356451447       -0.9794961358
 H         -0.9193050247        3.7238601268       -1.0699221549
 H         -3.8589442830        3.0772095676       -1.5441014357
 H         -2.5157719130        3.0044486320       -2.7017137568
 O         -1.4716701183        0.9167828356       -1.9381214587
 C         -0.9985747255       -0.3585435022       -1.6627335669
 O          0.0415359126       -0.6386466668       -2.2924471894
 O         -3.5308220846       -1.3508587188        0.7190981632
 C         -1.2671408040       -2.5529412223       -0.3803618694
 C         -0.3496093959       -2.4593075724        0.8174214967
 C         -0.5866910040       -3.2021564020        1.9669343347
 C          0.2213095040       -3.0479043874        3.0798915499
 C          1.2499126563       -2.1240051193        3.0781218649
 C          1.4963467394       -1.3763102604        1.9306708876
 C          0.7255943299       -1.5822009318        0.7976497359
 H          0.9320687725       -1.0131775339       -0.0928019990
 N          2.5132320635       -0.4109554098        1.9081675331
 S          2.2867770320        1.0907962456        1.1788032658
 O          2.8296556097        2.0440754888        2.1278095188
 O          0.9143975480        1.2949175739        0.7884378643
 C          3.3849906335        1.0228710301       -0.2217516529
 C          4.7246126237        1.2699857290        0.0164055301
 C          5.6207272216        1.2050053973       -1.0368739789
 C          5.1656473938        0.8930133426       -2.3095493119
 C          3.8201483794        0.6484017003       -2.5324299478
 C          2.9165508254        0.7120028028       -1.4814221995
 H          1.8664081885        0.5192044279       -1.6405504313
 H          3.4581310646        0.4038206295       -3.5184459347
 H          5.8613344180        0.8414441262       -3.1322836954
 H          6.6674178978        1.3969896864       -0.8642784130
 H          5.0313628743        1.5229608850        1.0177806352
 H          2.9929235729       -0.3001289889        2.7900536466
 H          1.8543273741       -1.9720841316        3.9598026466
 H          0.0301282874       -3.6311132314        3.9679842055
 H         -1.4231946841       -3.8845682298        1.9943694622
 H         -2.1795309418       -3.0736674475       -0.0570383022
 C         -0.6272044593       -3.3555847851       -1.4937023180
 C         -0.6623195141       -4.8519610065       -1.4223609815
 C         -1.4981820169       -4.1297496036       -2.4351538660
 H         -1.2132805876       -4.1784377101       -3.4750953143
 H         -2.5661298993       -4.0854436576       -2.2776498447
 H          0.1999143328       -5.4023235081       -1.7656225911
 H         -1.1657541900       -5.3029078779       -0.5807441929
 H          0.2587767884       -2.8912044905       -1.9054198233
