  62
        -98.94433869
 C          1.6184712179        1.3769662017        0.5397230123
 C          1.6182803772        0.0718037741        1.0954124295
 C          2.7464907782       -0.7871743989        0.7220268648
 C          3.7059357564       -0.3108565916       -0.0919924100
 C          4.9370551080       -1.0519476901       -0.5386866367
 C          4.7138880253       -1.9543701834       -1.7598998505
 C          3.9023177461       -3.2218970536       -1.4903064697
 H          4.0036162802       -3.8598875712       -2.3704910455
 H          4.3389546791       -3.7583313864       -0.6473744013
 C          2.4101199902       -2.9730857799       -1.2286622866
 H          2.1401600265       -1.9731570152       -1.5768937028
 H          1.8158823000       -3.6826303988       -1.8083431218
 C          1.9881935916       -3.1189276142        0.2333149492
 H          0.9248577896       -2.8789800463        0.3055759157
 H          2.1260561595       -4.1543883471        0.5512588979
 C          2.7435920384       -2.2051131824        1.2069438607
 H          3.7635187794       -2.5618717485        1.3484135426
 H          2.2260408682       -2.2264512632        2.1687641129
 H          4.2258373004       -1.3681949106       -2.5421263774
 H          5.6980454169       -2.2494954833       -2.1312966918
 H          5.3273488542       -1.6458992938        0.2881327848
 H          5.6774881417       -0.2935664030       -0.8022555088
 O          3.6712006183        0.9473540792       -0.6033067665
 C          2.6132323723        1.8073421709       -0.3385108133
 O          2.6964821408        2.9002980271       -0.9301996175
 O          0.7208745153       -0.3514541139        1.8709793059
 C          0.4397605396        2.2796698822        0.8669337678
 C         -0.4898677928        2.2765603111       -0.3217878382
 C         -0.4870817407        3.2720898978       -1.2908588348
 C         -1.3298052003        3.1803416941       -2.3845503100
 C         -2.2011372039        2.1147542570       -2.5209007740
 C         -2.2115704670        1.1134929053       -1.5559310820
 C         -1.3498517367        1.1953784044       -0.4740128105
 H         -1.3453317275        0.4085605583        0.2659105012
 N         -3.0782158488        0.0146835598       -1.6617719380
 S         -3.8884096017       -0.5230551395       -0.2947587886
 O         -5.0819307727       -1.1587121183       -0.8145068726
 O         -4.1023147091        0.5516759265        0.6459836097
 C         -2.8426960413       -1.7790488287        0.4062489797
 C         -2.4281186436       -1.6765791145        1.7181505522
 C         -1.6534076023       -2.6905571732        2.2579996444
 C         -1.3134239651       -3.7853155661        1.4798860038
 C         -1.7386660719       -3.8742501497        0.1620340672
 C         -2.5114321277       -2.8629457542       -0.3832355820
 H         -2.8664925402       -2.8971153435       -1.3999111858
 H         -1.4659517059       -4.7265877639       -0.4394473083
 H         -0.7089799017       -4.5726736544        1.9021940043
 H         -1.3117287588       -2.6142557224        3.2773476771
 H         -2.7100324541       -0.8062437669        2.2894349264
 H         -3.6925870979        0.0401372036       -2.4629043934
 H         -2.8675005153        2.0539732177       -3.3683422572
 H         -1.3154393746        3.9554438452       -3.1360799813
 H          0.1905232823        4.1047378795       -1.1978398358
 H         -0.0832686555        1.7822022639        1.6956600568
 C          0.8516941154        3.6637657720        1.3182268546
 C         -0.1685931970        4.5439718728        1.9742878057
 C          0.9470802617        3.9571386158        2.7842403090
 H          1.7343916877        4.6113061268        3.1276840471
 H          0.7125585460        3.1579471128        3.4721675096
 H         -0.1505049331        5.6022405134        1.7633512116
 H         -1.1612512084        4.1395628344        2.1073957485
 H          1.5846579630        4.1306250378        0.6727748061
