  62
        -98.93919021
 C         -2.6865832402       -1.0919046352       -0.3801518848
 C         -2.4170881620        0.1252101887       -1.0519705473
 C         -3.3995019610        1.1986394770       -0.8484216436
 C         -4.4847724510        0.9865973487       -0.0834787050
 C         -5.5812243746        1.9773544305        0.1986427552
 C         -5.2672752289        2.9445312453        1.3483534117
 C         -4.2233797733        4.0159036383        1.0306288545
 H         -4.5020669189        4.5315168087        0.1110751920
 H         -4.2608629456        4.7485526860        1.8392500192
 C         -2.7875561937        3.4857445616        0.9118165111
 H         -2.1114660085        4.1374644813        1.4698065732
 H         -2.7249096578        2.4955478827        1.3697211888
 C         -2.2582213251        3.4034444426       -0.5200228687
 H         -2.1883253934        4.4080963678       -0.9428023909
 H         -1.2512967536        2.9795648740       -0.4873487742
 C         -3.1080342486        2.5368034668       -1.4585281949
 H         -2.5413752688        2.3677143845       -2.3772927666
 H         -4.0354986966        3.0508750525       -1.7089717070
 H         -6.2005629495        3.4449344146        1.6167783510
 H         -4.9411216015        2.3634344624        2.2141763283
 H         -5.8050072362        2.5445865785       -0.7052457592
 H         -6.4636063617        1.3942581521        0.4709006040
 O         -4.7229697317       -0.2048899508        0.5257270974
 C         -3.8283225859       -1.2536185294        0.4125776725
 O         -4.1610087660       -2.2750559579        1.0469549422
 O         -1.4194165656        0.3325794137       -1.7934770874
 C         -1.7675250817       -2.3024033386       -0.4508915440
 C         -0.5649376444       -2.1098381541        0.4433729006
 C         -0.4273775703       -2.8536131709        1.6096454253
 C          0.6716877504       -2.6771049724        2.4319381203
 C          1.6510907143       -1.7539767724        2.1127175557
 C          1.5201380030       -1.0016730008        0.9523647982
 C          0.4231177849       -1.1898544790        0.1224976215
 H          0.3160100945       -0.5926778079       -0.7708994423
 N          2.4893714329       -0.0308691583        0.6294102851
 S          4.1089316362       -0.5020805160        0.7145845937
 O          4.3106455421       -1.7373196816       -0.0107941197
 O          4.5067233201       -0.5173708965        2.1002909163
 C          4.9047027699        0.8523998152       -0.1247225629
 C          5.3004894140        0.7005892291       -1.4396692073
 C          5.9035603558        1.7687805381       -2.0851991825
 C          6.0955165980        2.9643406693       -1.4094629344
 C          5.6912414671        3.1016379871       -0.0896383984
 C          5.0894773751        2.0372421827        0.5622156761
 H          4.7682747520        2.0947017298        1.5890484116
 H          5.8441011114        4.0324805512        0.4323300416
 H          6.5655653160        3.7936554676       -1.9141106526
 H          6.2208345160        1.6643502039       -3.1102830805
 H          5.1377646441       -0.2493879904       -1.9232500103
 H          2.2944186298        0.3964903150       -0.2666977406
 H          2.5142647367       -1.6110025637        2.7424362838
 H          0.7672705776       -3.2638883580        3.3333728808
 H         -1.1957225186       -3.5662903516        1.8738883039
 H         -2.3513974042       -3.1391695284       -0.0450446646
 C         -1.3582263406       -2.6506829991       -1.8690636263
 C         -0.8385521178       -4.0259959265       -2.1555956070
 C         -2.1906638963       -3.6157639166       -2.6556003382
 H         -2.3202536615       -3.4413811357       -3.7131768495
 H         -3.0618109087       -4.0343587440       -2.1725745456
 H         -0.0360300241       -4.1355970383       -2.8688707883
 H         -0.7917260679       -4.7235890814       -1.3327992857
 H         -0.9183477482       -1.8232603006       -2.4092540545
