  62
        -98.94847729
 C         -0.8382705476       -1.2194220771        0.5664809122
 C         -1.2129741023       -0.5355751527       -0.6147949542
 C         -2.1520113493        0.5779587463       -0.4278986346
 C         -2.4794956138        0.9726152114        0.8152918220
 C         -3.4185156546        2.0938598155        1.1693958722
 C         -4.8944030086        1.6722336478        1.1970026093
 C         -5.5204924725        1.4234592660       -0.1760138359
 H         -6.5993787200        1.3487046007       -0.0261225171
 H         -5.3402547504        2.2864914313       -0.8174805375
 C         -5.0301198053        0.1476958258       -0.8752712877
 H         -5.8867175366       -0.3967329517       -1.2791619694
 H         -4.5522095995       -0.5080581898       -0.1436438035
 C         -4.0605549974        0.3889778773       -2.0328122679
 H         -4.5723926652        0.9319081346       -2.8302579764
 H         -3.7555008087       -0.5827730753       -2.4288541434
 C         -2.7928045747        1.1649989286       -1.6485516087
 H         -2.0764448051        1.0815034260       -2.4684617934
 H         -3.0321651396        2.2153877416       -1.4901475219
 H         -4.9899406591        0.7735530428        1.8109769645
 H         -5.4538867106        2.4710461106        1.6894222145
 H         -3.1372134906        2.4349814347        2.1681500942
 H         -3.2945773088        2.9197098352        0.4688887151
 O         -1.9691119020        0.3825244146        1.9310007333
 C         -1.1959538599       -0.7639113255        1.8344654663
 O         -0.8879405701       -1.2719447986        2.9331620701
 H          1.7007416353       -0.5782166231        1.1012691905
 C          2.0726523114       -1.1806097820        0.2843233316
 C          1.3044497050       -2.2363465119       -0.1915634531
 C          1.8092008081       -3.0149337185       -1.2250054736
 C          3.0488352755       -2.7327274472       -1.7718442312
 C          3.8079495627       -1.6777434725       -1.3013618236
 C          3.3152962513       -0.8989475002       -0.2594265266
 N          4.0737456705        0.1608147379        0.2577974358
 S          3.3460649284        1.5000994681        0.9208256149
 O          4.3847553591        2.5100937161        0.8991455120
 O          2.8060133317        1.1957499074        2.2228343960
 C          2.0429659245        2.0012747422       -0.1893688131
 C          2.2408168664        1.9348936833       -1.5539623799
 C          1.2595819129        2.4276850509       -2.3982099298
 C          0.1124615494        2.9954713813       -1.8680579832
 C         -0.0725424237        3.0530313209       -0.4962465639
 C          0.8972569106        2.5455939706        0.3523585407
 H          0.7849410028        2.5578717366        1.4256647978
 H         -0.9632421225        3.4942710999       -0.0798374795
 H         -0.6420664018        3.3947839945       -2.5268082717
 H          1.3954140597        2.3720570979       -3.4661768130
 H          3.1473220502        1.5035371281       -1.9456778020
 H          4.9155991212        0.3880228263       -0.2497953029
 H          4.7755376461       -1.4595487489       -1.7264252619
 H          3.4281307485       -3.3422753516       -2.5776714600
 H          1.2323569366       -3.8417278089       -1.6045193925
 C         -0.0238598526       -2.4964881119        0.4739559134
 H          0.1778870669       -2.8028002983        1.5114432669
 C         -0.8432115542       -3.5758828551       -0.2042947898
 C         -0.6144214343       -5.0193671419        0.1252076843
 C         -1.8556704160       -4.3290253987        0.6030678438
 H         -2.7989912256       -4.5824334028        0.1428866464
 H         -1.9350071486       -4.0826259610        1.6523970339
 H          0.1474552362       -5.2511029745        0.8541324000
 H         -0.7090934937       -5.7509190081       -0.6630193099
 H         -1.1100868062       -3.3174906124       -1.2225501475
 O         -0.8079282553       -0.8494107756       -1.7627419753
