  62
        -98.93738932
 C         -1.5876843745       -1.2531976677       -0.7110625676
 C         -2.9206591488       -1.2000061728       -0.2090060449
 C         -3.6915003394        0.0159433396       -0.4782234325
 C         -3.1317250105        1.0128204739       -1.1850041242
 C         -3.7850130559        2.3145145660       -1.5612504752
 C         -3.7141833425        3.3821489324       -0.4610459784
 C         -4.6327498928        3.1403330573        0.7375003847
 H         -4.6516273862        4.0649941037        1.3177937672
 H         -5.6480475283        2.9555684342        0.3847443393
 C         -4.1874151538        1.9928138742        1.6551428235
 H         -3.1384048602        1.7548409046        1.4593648910
 H         -4.2488141880        2.3157313712        2.6971213422
 C         -5.0204163415        0.7169267778        1.5271289764
 H         -4.5925122466       -0.0375353785        2.1922822499
 H         -6.0437159045        0.9142084691        1.8545186297
 C         -5.0650968731        0.1290588059        0.1108673353
 H         -5.4858645454       -0.8776152657        0.1707539910
 H         -5.7027691808        0.7384779820       -0.5293489632
 H         -2.6795787118        3.4611338805       -0.1170005796
 H         -3.9876922464        4.3377467067       -0.9147606637
 H         -3.2533132271        2.6885437280       -2.4388970244
 H         -4.8262233776        2.1378448802       -1.8331003449
 O         -1.8696568587        0.9261932367       -1.6689429076
 C         -1.0564109235       -0.1744690562       -1.4216490479
 O          0.0779245213       -0.0395596667       -1.9169614995
 O         -3.4524459963       -2.1425293416        0.4390603058
 C         -0.8345705474       -2.5214952425       -0.3429681786
 C          0.1161302502       -2.3233945055        0.8190002835
 C          0.0785732153       -3.2129293272        1.8881548548
 C          0.9193327383       -3.0475389671        2.9732073621
 C          1.7982429908       -1.9818315586        3.0199893934
 C          1.8492940184       -1.0873457566        1.9548130000
 C          1.0276488509       -1.2776046329        0.8520020566
 H          1.0728990943       -0.5802812251        0.0344632186
 N          2.7484652597       -0.0169607968        1.9961993646
 S          2.5479658311        1.4575434077        1.2284963086
 O          3.1658621880        2.4074324215        2.1336045691
 O          1.1682377403        1.7104923776        0.8924451343
 C          3.5901883360        1.3039348416       -0.2071314321
 C          3.0613495184        1.0298612202       -1.4508531170
 C          3.9269613163        0.8865592474       -2.5259157989
 C          5.2937524275        1.0194021942       -2.3418112802
 C          5.8089099376        1.2991010984       -1.0845337334
 C          4.9515168840        1.4412891110       -0.0070237797
 H          5.3065417942        1.6715283974        0.9838237876
 H          6.8724026298        1.4051008814       -0.9427387231
 H          5.9596553728        0.9062378680       -3.1828722601
 H          3.5203958108        0.6683582590       -3.5007650345
 H          1.9944750988        0.9268778160       -1.5733867027
 H          3.2415062906        0.0880701069        2.8699485834
 H          2.4403416810       -1.8362131687        3.8754700119
 H          0.8784125938       -3.7432482694        3.7975730029
 H         -0.6301265193       -4.0281322556        1.8710340859
 H         -1.6417634363       -3.1711342506        0.0325859284
 C         -0.1496789064       -3.3401860846       -1.4340992277
 C         -0.3969840912       -3.1477047245       -2.8977170025
 C          0.9563451920       -2.8587307131       -2.3204371965
 H          1.7649618036       -3.5423344678       -2.5342665914
 H          1.2499308788       -1.8255024997       -2.2498833451
 H         -0.5307835288       -4.0204540472       -3.5198136824
 H         -0.9982160984       -2.3005004543       -3.1941861485
 H         -0.0531051706       -4.3739720502       -1.1119428853
