  62
        -98.93877640
 C         -2.0638912661        0.3346141123        0.2681287444
 C         -3.0541402334        0.9168825348       -0.5564443272
 C         -4.2906046521        0.1409778991       -0.7566575823
 C         -4.4137948276       -1.0646079947       -0.1703425503
 C         -5.5259352464       -2.0917590363       -0.2222330517
 C         -6.8907297854       -1.7376548093       -0.8065977601
 C         -7.7019691225       -0.7431888075        0.0241226966
 H         -8.5970565054       -0.4743899023       -0.5409108910
 H         -8.0253639368       -1.2416665020        0.9414331570
 C         -6.9674796470        0.5322899734        0.4291078818
 H         -6.1139629706        0.2789983202        1.0612290502
 H         -7.6504824816        1.1329171719        1.0360325791
 C         -6.4863463017        1.4044002254       -0.7283660999
 H         -6.1169448528        2.3416628974       -0.3035044312
 H         -7.3267849920        1.6428848773       -1.3831121192
 C         -5.3557754857        0.8051632740       -1.5813851428
 H         -5.7465363522        0.1205642411       -2.3302629886
 H         -4.8636492076        1.6252629533       -2.1124377713
 H         -6.7822579257       -1.3857060139       -1.8282393222
 H         -7.4606801722       -2.6696476982       -0.8529514926
 H         -5.1174404067       -2.9392560722       -0.7837295231
 H         -5.6571833865       -2.4417134936        0.8067812027
 O         -3.4188555303       -1.5950866777        0.6004887208
 C         -2.2332138363       -0.9218653852        0.8457136722
 O         -1.4386679407       -1.5377421133        1.5811754439
 O         -2.9103211977        2.0389458849       -1.1117739241
 C         -0.7734254607        1.0983353097        0.5106461523
 C          0.3754428349        0.3189957541       -0.0784147588
 C          0.4294159184        0.1575148920       -1.4610132837
 C          1.4419555098       -0.5749461836       -2.0493852157
 C          2.4250290844       -1.1635349818       -1.2724454560
 C          2.3835292395       -1.0039124776        0.1056288324
 C          1.3704121247       -0.2564823501        0.6947499364
 H          1.3491004126       -0.1513351705        1.7677451940
 N          3.3789952297       -1.5943521692        0.8995423542
 S          4.9705395619       -1.4863376057        0.4022574911
 O          5.2343172224       -2.4708977119       -0.6175256376
 O          5.7532448798       -1.6058141214        1.6121928539
 C          5.1302929704        0.1528059951       -0.2849075262
 C          5.4488269463        0.3158666343       -1.6174311811
 C          5.5346315378        1.5989658552       -2.1341835725
 C          5.2986630402        2.6908167401       -1.3138184056
 C          4.9834454150        2.5107408989        0.0245126304
 C          4.8967758075        1.2306127511        0.5463277167
 H          4.6604056467        1.0566366089        1.5836669738
 H          4.8025871437        3.3618861956        0.6611282454
 H          5.3616800216        3.6887320366       -1.7182515227
 H          5.7819867065        1.7419329858       -3.1737308256
 H          5.6236668535       -0.5602551787       -2.2203513746
 H          3.2785240424       -1.4226298001        1.8884617970
 H          3.2113873612       -1.7557208151       -1.7114239157
 H          1.4665830234       -0.6945091625       -3.1218632909
 H         -0.3436996010        0.6096606634       -2.0668669090
 H         -0.8791810859        2.0320860334       -0.0592549872
 C         -0.6087850276        1.4374593172        1.9764639038
 C          0.3075424824        2.5516591464        2.3831695217
 C         -1.1770234554        2.7234517151        2.4938556572
 H         -1.6258543124        2.7295536474        3.4759537404
 H         -1.6731072103        3.3695071949        1.7845408149
 H          0.8795019147        2.4450804395        3.2925116156
 H          0.8204174637        3.0844924699        1.5971963234
 H         -0.6801140056        0.5696213415        2.6222955652
