  62
        -98.93479321
 C         -2.2311018605       -0.3647934785        0.3303376098
 C         -3.4591847405       -0.8090164781        0.8706366200
 C         -4.6610937105       -0.0424067083        0.4988467295
 C         -4.5382873304        1.0180746413       -0.3214632611
 C         -5.5669735103        2.0032327110       -0.8372297217
 C         -7.0603796803        1.7179048411       -0.7008928116
 C         -7.5689471903        0.5535353207       -1.5504460010
 H         -8.6155869004        0.3751752209       -1.2944762509
 H         -7.5291826003        0.8484999901       -2.6020616212
 C         -6.7931181704       -0.7537729493       -1.4103354002
 H         -5.7659654104       -0.6095842195       -1.7519106703
 H         -7.2530778404       -1.4884934096       -2.0768382298
 C         -6.7694392605       -1.3524809685       -0.0055418999
 H         -7.7908848405       -1.4716869882        0.3607848501
 H         -6.3219868605       -2.3472760285       -0.0796644493
 C         -5.9637433905       -0.5600652979        1.0380961297
 H         -6.5533528605        0.2489238123        1.4623737392
 H         -5.7066995006       -1.2418995375        1.8540087701
 H         -7.5803968503        2.6202380410       -1.0339690821
 H         -7.3217830904        1.5720373217        0.3429503685
 H         -5.3476801303        2.9504980613       -0.3320967022
 H         -5.3266187603        2.1573023404       -1.8940437318
 O         -3.3255598003        1.4144932709       -0.8117341313
 C         -2.1519389004        0.7432258511       -0.5100704808
 O         -1.1329703503        1.2266486207       -1.0409643210
 H          1.7029663095       -0.8176573188        0.0162819202
 C          1.3821585795       -0.1636243883        0.8076245399
 C          0.0688865495       -0.1893943080        1.2503395798
 C         -0.3069759205        0.6674498525        2.2817004593
 C          0.6014455795        1.5508249728        2.8301520089
 C          1.9013406695        1.6004891925        2.3585885189
 C          2.2935596695        0.7371460219        1.3425433694
 N          3.6309055495        0.7365706416        0.9014451895
 S          4.0863667496        0.7170556107       -0.7213477305
 O          4.1299468297        2.0745251304       -1.2262914712
 O          3.2917987596       -0.2251693597       -1.4628938500
 C          5.7464641096        0.0900553108       -0.5442992101
 C          5.8965724195       -1.2394316591       -0.1989585893
 C          7.1740750895       -1.7490832090       -0.0333815890
 C          8.2750596895       -0.9246978492       -0.2145905794
 C          8.1086745496        0.4069493407       -0.5622093201
 C          6.8324510996        0.9229244006       -0.7282727305
 H          6.6558091097        1.9503562105       -1.0029003210
 H          8.9664727696        1.0444362605       -0.7042248004
 H          9.2686614095       -1.3239887491       -0.0853394491
 H          7.3070518294       -2.7845696689        0.2358847716
 H          5.0127993895       -1.8433492690       -0.0736926290
 H          4.1751615595        1.4562428119        1.3602930191
 H          2.6078925195        2.3024544127        2.7760916386
 H          0.2942754595        2.2149777833        3.6243181385
 H         -1.3276694005        0.6389311428        2.6391961193
 C         -0.9608539205       -1.1233706483        0.6657289803
 H         -1.2494340806       -1.8511093779        1.4392995407
 C         -0.4696309505       -1.8784274790       -0.5517038093
 C          0.2910153195       -3.1597886890       -0.3922162685
 C         -1.1157311005       -3.1823549492       -0.9077818086
 H         -1.2821910305       -3.4072430698       -1.9506745785
 H         -1.8962757206       -3.5410812988       -0.2527115184
 H          1.0951599595       -3.3653917194       -1.0827796884
 H          0.4673205294       -3.5134553684        0.6123502617
 H         -0.1904272104       -1.2183075295       -1.3668506296
 O         -3.5493828906       -1.7995931277        1.6450291605
