  62
        -98.94340770
 C         -2.2844066447       -0.6148076263        0.0543438192
 C         -3.1676441910       -0.2011254557        1.0882933693
 C         -4.0958843417        0.8883135017        0.7643634191
 C         -4.0552689099        1.4391206126       -0.4620995224
 C         -4.9747448610        2.5197553834       -0.9503748051
 C         -6.2205961369        1.9273875929       -1.6238859933
 C         -6.9096057921        0.8392178646       -0.8004165964
 H         -7.7910917002        0.5178961268       -1.3595023044
 H         -6.2452716925       -0.0247248745       -0.7246159973
 C         -7.3301527479        1.2796530333        0.6087341657
 H         -7.3511027081        2.3685295907        0.6657880933
 H         -8.3458630548        0.9256597127        0.7973122936
 C         -6.4510609338        0.7302379241        1.7338189930
 H         -6.9584952560        0.9175281937        2.6838440681
 H         -6.3509150619       -0.3525975794        1.6247182172
 C         -5.0457628586        1.3360271484        1.8394110048
 H         -5.1155192359        2.4254380686        1.8616045139
 H         -4.6087814361        0.9997268955        2.7840598329
 H         -6.9245037591        2.7380147324       -1.8208307973
 H         -5.9236320056        1.4948970126       -2.5821942070
 H         -5.2666258927        3.1469080259       -0.1102336239
 H         -4.4347062002        3.1289687678       -1.6771361287
 O         -3.1880754077        1.0320677583       -1.4210704518
 C         -2.2894356756       -0.0015210395       -1.1982430472
 O         -1.5743444910       -0.2500125247       -2.1914353532
 O         -3.1804263961       -0.7286993984        2.2320259634
 C         -1.3458727966       -1.7620114900        0.3895653309
 C          0.0477373521       -1.2817898113        0.7203974660
 C          0.6101053160       -1.5342618879        1.9661455823
 C          1.8984716106       -1.1195926560        2.2549957352
 C          2.6495258527       -0.4416574622        1.3117414538
 C          2.0956863036       -0.1810903238        0.0651057710
 C          0.8069174001       -0.6059205030       -0.2242650028
 H          0.3819362979       -0.4003161183       -1.1957302110
 N          2.8400798597        0.5300246953       -0.8940841396
 S          4.3692820408       -0.0460383166       -1.2825158590
 O          4.6445257866        0.4635246178       -2.6081248638
 O          4.4541094667       -1.4787564913       -1.1144656321
 C          5.4420851548        0.7668581185       -0.1164281462
 C          5.4152840173        2.1465765389       -0.0582282559
 C          6.2505287186        2.7944997420        0.8377396446
 C          7.0961336988        2.0564997351        1.6528526047
 C          7.1143840533        0.6721519834        1.5791530383
 C          6.2800926385        0.0176553540        0.6861329298
 H          6.2546570814       -1.0567262939        0.5979476067
 H          7.7728831813        0.1004089082        2.2131151504
 H          7.7449478750        2.5638228108        2.3492688688
 H          6.2392082990        3.8709071339        0.8979018116
 H          4.7461935989        2.6820736642       -0.7111343176
 H          2.3150421761        0.7254939477       -1.7349429011
 H          3.6523826095       -0.1136721399        1.5315394450
 H          2.3221630436       -1.3238272820        3.2263503143
 H          0.0259000287       -2.0516245644        2.7130758520
 H         -1.7648494531       -2.2137230494        1.2988889114
 C         -1.2907110054       -2.8268335581       -0.6896915769
 C         -0.8528154494       -4.2116625926       -0.3226402992
 C         -2.2860296108       -3.9460308315       -0.6714541669
 H         -2.6670823819       -4.3112998976       -1.6133151079
 H         -3.0141798837       -3.9539360550        0.1265779521
 H         -0.2436144140       -4.7609799047       -1.0240160948
 H         -0.6101301504       -4.4014635364        0.7118674970
 H         -0.9910058173       -2.4446392316       -1.6571046635
