  62
        -98.93878357
 C         -1.9553970002        1.3159456686        0.0428448082
 C         -2.5929837144        0.6604342624       -1.0335109212
 C         -3.8017398398       -0.1258251858       -0.7184992500
 C         -4.2135226105       -0.1912499246        0.5616235545
 C         -5.3847097182       -0.9511684255        1.1254567928
 C         -5.1139868829       -2.4601333238        1.2381612922
 C         -4.4329435190       -3.0829695690        0.0222853534
 H         -3.4849544899       -2.5721675831       -0.1575772218
 H         -4.1978081414       -4.1217469144        0.2693149698
 C         -5.2625212558       -3.0839145045       -1.2597060579
 H         -6.1923436966       -3.6291451243       -1.0831656884
 H         -4.6937360295       -3.6345809175       -2.0135485586
 C         -5.6070619581       -1.7086364370       -1.8355075259
 H         -6.4190350596       -1.2439596987       -1.2828142434
 H         -5.9753543070       -1.8661870729       -2.8534824311
 C         -4.4265405297       -0.7486520222       -1.9440702156
 H         -3.6097883288       -1.2455989427       -2.4803306864
 H         -4.7198741147        0.0923212498       -2.5841151133
 H         -6.0612306557       -2.9678364201        1.4273837137
 H         -4.4650912081       -2.6232433943        2.1022723033
 H         -6.2742569041       -0.7600429448        0.5326878279
 H         -5.5612519735       -0.5549260485        2.1278366062
 O         -3.5469811279        0.4336804643        1.5740656385
 C         -2.4123153997        1.1931651569        1.3545424844
 O         -1.9187136517        1.6934873411        2.3821637814
 O         -2.1670484796        0.7172681124       -2.2202555166
 C         -0.7156179201        2.1482261505       -0.2311682735
 C          0.4716409961        1.5396433006        0.4736576386
 C          1.3173233305        2.2493708751        1.3147644872
 C          2.3779036025        1.6148987043        1.9400078778
 C          2.6257317478        0.2712890458        1.7319244623
 C          1.7988892580       -0.4431273776        0.8728374345
 C          0.7375786415        0.1935106239        0.2493076219
 H          0.0911149970       -0.3652294328       -0.4162556399
 N          2.0551269456       -1.8034534333        0.6346307866
 S          3.6406027752       -2.2736050673        0.3800494954
 O          3.5555617868       -3.4555646781       -0.4492001832
 O          4.3066403354       -2.4436773210        1.6474825732
 C          4.3949732204       -0.9296001505       -0.5196755057
 C          5.4890853368       -0.2762296699        0.0096341649
 C          6.0436820958        0.7810972594       -0.6938288660
 C          5.4943067424        1.1671749253       -1.9063310808
 C          4.3968243165        0.4982908804       -2.4268564920
 C          3.8399987662       -0.5610654366       -1.7292406973
 H          2.9887720756       -1.1025946375       -2.1103722993
 H          3.9698133087        0.7994595974       -3.3700736299
 H          5.9228652642        1.9936854202       -2.4507978711
 H          6.8982102145        1.3015383805       -0.2925247618
 H          5.8814055255       -0.6072090459        0.9574178375
 H          1.4303156620       -2.2309429177       -0.0323659217
 H          3.4353998606       -0.2395936564        2.2272087859
 H          3.0184383418        2.1752552365        2.6035443873
 H          1.1399713347        3.2967849918        1.4928909443
 H         -0.5457285028        2.0663305064       -1.3150080157
 C         -0.9578755540        3.6012995003        0.1153986429
 C         -0.1852482497        4.6789019587       -0.5830597115
 C         -1.6385472058        4.4805970963       -0.8890634158
 H         -2.3477117782        5.2137817341       -0.5350758381
 H         -1.9082713047        4.0363321674       -1.8361977208
 H          0.1035861809        5.5537353607       -0.0206161292
 H          0.5347765625        4.3742863973       -1.3271633943
 H         -1.2141632335        3.7447653586        1.1588438121
