  62
        -98.93067916
 C         -2.3740919126       -1.1793803775        0.1378483023
 C         -2.5007615858        0.1067851537       -0.4360488559
 C         -3.8771856675        0.5953053242       -0.6765990729
 C         -4.9171704001       -0.1835933496       -0.3281330610
 C         -6.3885223362        0.1153826349       -0.4401505289
 C         -6.8783209073        1.0880956719        0.6450443078
 C         -5.9629602811        2.2832736054        0.8977166502
 H         -4.9699628178        1.9232768836        1.1735218524
 H         -6.3598290535        2.8292422676        1.7576646026
 C         -5.8415581702        3.2665527232       -0.2639146484
 H         -5.2324120616        4.1049881079        0.0833018233
 H         -6.8325104868        3.6550667326       -0.5092953029
 C         -5.2060100517        2.7164882623       -1.5423925798
 H         -4.9666989643        3.5721300937       -2.1806442050
 H         -5.9108282824        2.1049334675       -2.0992198478
 C         -3.9003802873        1.9560906603       -1.3304406885
 H         -3.2111230835        2.5793214213       -0.7492661723
 H         -3.4133235653        1.8230243886       -2.3044295365
 H         -6.9647754273        0.5318761470        1.5816131009
 H         -7.8735478172        1.4402321941        0.3687515182
 H         -6.6185576077        0.4920517642       -1.4322636258
 H         -6.9111823078       -0.8355797848       -0.3156801653
 O         -4.7454791554       -1.4058209090        0.2536782432
 C         -3.4938486682       -1.9280874798        0.5065178642
 O         -3.5049546256       -3.0457644633        1.0608207082
 H          1.4152956513       -0.8013911924       -0.4544573950
 C          1.1067459608       -0.4066554157        0.4990547506
 C         -0.0988424117       -0.7836731579        1.0668790029
 C         -0.4671953560       -0.2181876370        2.2856648143
 C          0.3495715996        0.7004183190        2.9147963390
 C          1.5634851488        1.0583532897        2.3546060983
 C          1.9373910802        0.5044171689        1.1367991361
 N          3.1512772251        0.8617799627        0.5284883547
 S          3.9937418289       -0.3218587235       -0.3289991215
 O          3.5080316580       -0.3623179487       -1.6852046347
 O          3.9644599768       -1.5729304703        0.3956217893
 C          5.6393962500        0.3666383699       -0.3015138467
 C          6.5328176695       -0.0561387704        0.6646886966
 C          7.8000389922        0.5043669892        0.6976938986
 C          8.1496959920        1.4748705744       -0.2291461966
 C          7.2425302565        1.8886927109       -1.1934135143
 C          5.9741299651        1.3317177339       -1.2327090165
 H          5.2393176176        1.6148733704       -1.9683836580
 H          7.5189451859        2.6413713320       -1.9140581718
 H          9.1364580209        1.9094088770       -0.2017856699
 H          8.5083872541        0.1823026137        1.4438845585
 H          6.2197939212       -0.8199054634        1.3583478799
 H          3.7583333783        1.3935393954        1.1367615615
 H          2.2079444026        1.7691562076        2.8494056747
 H          0.0457932932        1.1336936186        3.8561191356
 H         -1.4114011391       -0.5071777983        2.7286590681
 C         -1.0193573485       -1.7976893369        0.4336035363
 H         -1.2223226330       -2.5767885194        1.1884704335
 C         -0.3885121006       -2.5057279263       -0.7561791156
 C         -1.2310203864       -3.1460542393       -1.8173282867
 C         -0.4182565054       -1.9295103748       -2.1383249395
 H          0.4621053682       -2.0401068174       -2.7554169629
 H         -0.9268459452       -0.9882467195       -2.2746133723
 H         -2.3031484196       -3.0390534982       -1.7366480479
 H         -0.9153381327       -4.0983939561       -2.2159825076
 H          0.5156523192       -3.0390734167       -0.4742355988
 O         -1.5223881217        0.8380206533       -0.7396456139
