  62
        -98.93981460
 C         -1.4138472720       -1.2597757169        0.0369080560
 C         -2.4785884349       -0.8745956514        0.8818869451
 C         -3.1559196365        0.3833441182        0.5383253944
 C         -2.7072361729        1.1040279909       -0.5061485391
 C         -3.3370028190        2.3657196147       -1.0246174913
 C         -4.5988243581        2.0277136834       -1.8446456974
 C         -5.9044363562        2.5362691335       -1.2329925541
 H         -5.9795572970        3.6124699750       -1.4017579906
 H         -6.7253204549        2.0591638725       -1.7723767905
 C         -6.0812530507        2.2846491167        0.2675036739
 H         -7.1358168789        2.4524892471        0.4961237623
 H         -5.5179863447        3.0284410162        0.8332822232
 C         -5.6861911631        0.8883621093        0.7650654063
 H         -5.7420310542        0.1609769666       -0.0449735477
 H         -6.4108890245        0.5797348858        1.5212244890
 C         -4.2951094378        0.8117027544        1.4221506014
 H         -4.0549098291        1.7731345727        1.8858232947
 H         -4.3262996007        0.0629433671        2.2196571210
 H         -4.5039746549        2.4486379359       -2.8466168565
 H         -4.6487282972        0.9432182480       -1.9621537529
 H         -3.5824517353        3.0210508969       -0.1916369534
 H         -2.5947736325        2.8638918857       -1.6489109123
 O         -1.6582787625        0.7180668315       -1.2752206101
 C         -0.9717430338       -0.4550649054       -1.0137636130
 O         -0.0141387232       -0.6748688516       -1.7794794589
 O         -2.8409683819       -1.5505787175        1.8853458202
 C         -0.6613456835       -2.5462728439        0.3308017536
 C          0.7983262811       -2.2301433029        0.5378248353
 C          1.8349896486       -2.9417725662       -0.0518391821
 C          3.1499705016       -2.5408706714        0.1144890160
 C          3.4564555053       -1.4115549788        0.8516062436
 C          2.4277018991       -0.7090894274        1.4637754372
 C          1.1187243926       -1.1340780080        1.3301997912
 H          0.3245420473       -0.5673211239        1.8015427368
 N          2.7373866561        0.5093887326        2.1403106600
 S          2.4244037659        1.8191279534        1.1132914757
 O          2.8469880691        2.9977887467        1.8415390600
 O          1.0420980934        1.8299807166        0.6804696092
 C          3.5268181457        1.4996563262       -0.2416291503
 C          4.8391463590        1.9159685035       -0.1247452286
 C          5.7284028397        1.6202127321       -1.1447641145
 C          5.2921051247        0.9110247322       -2.2542160058
 C          3.9715846040        0.5009637095       -2.3541073817
 C          3.0735435032        0.7943281781       -1.3388617777
 H          2.0413090485        0.4800724638       -1.3881995571
 H          3.6279287212       -0.0535193106       -3.2125334965
 H          5.9847915029        0.6750302299       -3.0466857468
 H          6.7558012876        1.9382781042       -1.0704675734
 H          5.1275891650        2.4638925392        0.7572070292
 H          2.1802984897        0.6392399073        2.9756986604
 H          4.4711164106       -1.0637635198        0.9559920919
 H          3.9424348474       -3.1006309859       -0.3572056123
 H          1.6102278562       -3.8032689438       -0.6591199306
 H         -1.0794297455       -2.9241453720        1.2758310479
 C         -0.9104389331       -3.5667235868       -0.7600274762
 C         -0.8645605984       -5.0327621065       -0.4510220236
 C         -2.1774076567       -4.3660123582       -0.7280194747
 H         -2.6785465881       -4.5751132243       -1.6611642112
 H         -2.8507715087       -4.1923464506        0.0987190347
 H         -0.4666173242       -5.7045228992       -1.1963563158
 H         -0.6498123888       -5.3226932148        0.5662955190
 H         -0.5537818995       -3.2325482942       -1.7279947888
