  62
        -98.94493959
 C          2.2007891089        0.9669337161        0.5430689785
 C          2.3115752444        0.1376557213       -0.5995647537
 C          3.1110414752       -1.0818460475       -0.4238104988
 C          3.6390196732       -1.3701769858        0.7795074982
 C          4.4634830813       -2.5823938519        1.1185126875
 C          5.9509934105       -2.4416173649        0.7667083562
 C          6.2759769395       -2.5016961379       -0.7263723395
 H          7.3586692323       -2.6120012853       -0.8135119606
 H          5.8218812000       -3.3932382229       -1.1600186972
 C          5.8412242748       -1.2620425157       -1.5205959017
 H          5.6498668682       -0.4362343914       -0.8315826101
 H          6.6541980057       -0.9480825994       -2.1789341491
 C          4.6053836581       -1.4709876690       -2.3960427130
 H          4.3649217663       -0.5225354237       -2.8828635416
 H          4.8269091982       -2.2030343943       -3.1757809720
 C          3.3607382683       -1.9369189034       -1.6291302109
 H          2.4929499758       -1.8424090445       -2.2871690914
 H          3.4654298560       -2.9826625876       -1.3399290219
 H          6.3201535181       -1.5013997523        1.1827059600
 H          6.4810378350       -3.2565652195        1.2649087493
 H          4.3768547776       -2.7256307153        2.1978656142
 H          4.0502150656       -3.4587290346        0.6180919264
 O          3.4593915545       -0.5742965260        1.8680012356
 C          2.7532504385        0.6151986252        1.7735949050
 O          2.6772935355        1.2536581459        2.8438697978
 O          1.7750653861        0.3995903724       -1.7069085068
 C          1.4263450493        2.2702069579        0.4592243376
 C         -0.0033457407        1.9932086681        0.0604363467
 C         -0.6693479076        2.6852892784       -0.9418862633
 C         -1.9778930180        2.3661422493       -1.2621646727
 C         -2.6512253662        1.3635585061       -0.5893505918
 C         -1.9962966108        0.6685853226        0.4192760407
 C         -0.6868490917        0.9910980854        0.7384743081
 H         -0.1756901561        0.4456726658        1.5235593368
 N         -2.6762487904       -0.3429740846        1.1223232453
 S         -3.4333073873       -1.5491264041        0.2292791344
 O         -3.4858075285       -2.6935806186        1.1136664007
 O         -2.7901465708       -1.7518986732       -1.0480247176
 C         -5.0844891293       -0.9250118725       -0.0057497694
 C         -5.5915105450       -0.7793265920       -1.2820936001
 C         -6.8814200540       -0.2960774841       -1.4392411377
 C         -7.6370339121        0.0299935290       -0.3234432629
 C         -7.1139700049       -0.1251371967        0.9518159887
 C         -5.8258076356       -0.6085922959        1.1158967689
 H         -5.3831777477       -0.7484306844        2.0879560357
 H         -7.7047240263        0.1288927409        1.8171065874
 H         -8.6398301274        0.4068318460       -0.4484690943
 H         -7.2898152064       -0.1757283770       -2.4297745933
 H         -4.9646483432       -1.0414495819       -2.1196809427
 H         -2.1273238766       -0.7528134325        1.8646034562
 H         -3.6680128485        1.1091851240       -0.8398827602
 H         -2.4806333923        2.9068359637       -2.0494265511
 H         -0.1610273150        3.4673491260       -1.4811871901
 H          1.4202869865        2.6866259972        1.4773605091
 C          2.1376107141        3.2401941046       -0.4609102962
 C          2.0041614828        4.7175321827       -0.2497978737
 C          3.2938440233        4.0275011638        0.0755626333
 H          4.1466633277        4.1937343433       -0.5653760545
 H          3.5515933674        3.8825963025        1.1149451279
 H          1.9744836926        5.3617267382       -1.1155189300
 H          1.3881529035        5.0513550785        0.5713194379
 H          2.2130081336        2.8697153455       -1.4767901202
