  62
        -98.93658986
 C          1.4341586807        1.4323922294        0.5660662735
 C          1.4445137410        0.3653012858       -0.3644685332
 C          2.3375912546       -0.7697357732       -0.0483403597
 C          2.9861251338       -0.7989621499        1.1293599845
 C          3.9068295641       -1.8367638281        1.7374216532
 C          4.5084526010       -2.9444388627        0.8763636710
 C          5.5200167215       -2.4655408990       -0.1649752391
 H          6.4210682428       -2.1310137953        0.3555224090
 H          5.7957998592       -3.3170547330       -0.7907964507
 C          5.0547493099       -1.3197111037       -1.0603441985
 H          5.8764210507       -1.0703265592       -1.7372660540
 H          4.8626892373       -0.4338598953       -0.4513278232
 C          3.8230260227       -1.6147207160       -1.9139631055
 H          3.6947580477       -0.7772440974       -2.6051392109
 H          3.9970183342       -2.5134955971       -2.5085953042
 C          2.5041630088       -1.7865370753       -1.1402598419
 H          1.6781572178       -1.6169939041       -1.8363625237
 H          2.4080784960       -2.7967603513       -0.7510396165
 H          3.7214088671       -3.5257703740        0.4053328899
 H          5.0329670841       -3.6186200851        1.5590430379
 H          4.7167279810       -1.2745665633        2.2134165829
 H          3.3375403200       -2.3004503417        2.5508961458
 O          2.8323909437        0.1940346011        2.0563290419
 C          2.0932846221        1.3331205438        1.7917923997
 O          2.0856464067        2.1638420201        2.7233643872
 H         -1.1711930787        1.4118214817        1.7410710705
 C         -1.5643785417        1.6603997535        0.7621797592
 C         -0.7561026313        2.3521355479       -0.1318529829
 C         -1.2648011600        2.6572103287       -1.3865767475
 C         -2.5483370428        2.2720734892       -1.7333091602
 C         -3.3504124460        1.5845408530       -0.8411406504
 C         -2.8501722809        1.2765903025        0.4174944004
 N         -3.6558800420        0.5708338578        1.3337731762
 S         -4.3224704194       -0.8680996748        0.7947771850
 O         -5.4616842591       -0.5823657968       -0.0404548842
 O         -4.5927658978       -1.6318385384        1.9929174586
 C         -3.0401711474       -1.6498290356       -0.1651275891
 C         -1.9316349070       -2.1274231128        0.5049853937
 C         -0.9116335679       -2.7173811854       -0.2213366011
 C         -1.0147362342       -2.8137957330       -1.6001830561
 C         -2.1295534264       -2.3214571991       -2.2589139825
 C         -3.1541773601       -1.7310260885       -1.5371815138
 H         -4.0396358471       -1.3388541398       -2.0099795413
 H         -2.2010422094       -2.3917092448       -3.3322514669
 H         -0.2193382579       -3.2752115084       -2.1636984764
 H         -0.0386158061       -3.0914596494        0.2893501978
 H         -1.8874959439       -2.0439485116        1.5798289056
 H         -3.2123493640        0.4322198617        2.2304295345
 H         -4.3508990293        1.2755208370       -1.0971838537
 H         -2.9289651969        2.5075511069       -2.7154239136
 H         -0.6456309379        3.1707929482       -2.1033050753
 C          0.6389346577        2.7035831923        0.3204292572
 H          0.5585291979        3.1829941198        1.3101385150
 C          1.3341511063        3.7059645062       -0.5885695118
 C          2.8280916766        3.8297789246       -0.5870017755
 C          2.1214222051        3.2970639861       -1.7953057828
 H          2.0705580050        3.9234370340       -2.6739511856
 H          2.1950946588        2.2441143685       -2.0141684565
 H          3.3845311852        3.1380434272        0.0292567881
 H          3.2627562266        4.8169923026       -0.6339305761
 H          0.7764777040        4.6347118986       -0.6619443998
 O          0.7561447140        0.3424199942       -1.4143560000
