  62
        -98.94139752
 C          1.2494936495        1.1101687099       -0.0758363306
 C          1.6667793197        0.0451654101        0.7553045796
 C          2.7330918395       -0.8203521701        0.2276307895
 C          3.2062514791       -0.5998197904       -1.0106826707
 C          4.2471567588       -1.3850925107       -1.7691720309
 C          5.5030351891       -1.8251427505       -1.0034846512
 C          5.9611196995       -0.8641886802        0.1034117584
 H          7.0236342094       -0.6523970103       -0.0294045620
 H          5.4265165895        0.0835178698        0.0203367083
 C          5.7692014599       -1.4380497998        1.5093381686
 H          6.0808158599       -2.4848173498        1.5053013188
 H          6.4266908702       -0.9037579397        2.1992737483
 C          4.3508547101       -1.3410594096        2.0699431591
 H          4.1125014502       -0.2979142795        2.2942810789
 H          4.3248913504       -1.8872160194        3.0158809292
 C          3.2398669998       -1.8853890598        1.1568960096
 H          3.5695417496       -2.7683061800        0.6141842797
 H          2.3904179300       -2.1660242096        1.7861219700
 H          5.3381261392       -2.8113735104       -0.5714968808
 H          6.2988132588       -1.9357261008       -1.7420816314
 H          3.7589436486       -2.2667475208       -2.1956257005
 H          4.5340618886       -0.7417637109       -2.6046255711
 O          2.7405326889        0.4100478294       -1.7993473409
 C          1.7562387091        1.2831051995       -1.3622248408
 O          1.4303245888        2.1486294693       -2.1970378509
 H         -0.8186864408       -0.2135736302       -0.6132903495
 C         -1.4491947108        0.6284208998       -0.8535210195
 C         -1.0811640706        1.9011036199       -0.4400519800
 C         -1.8935480707        2.9712013198       -0.7940998400
 C         -3.0331584110        2.7624907496       -1.5518310096
 C         -3.4040181711        1.4897149295       -1.9465128991
 C         -2.6010655611        0.4119945196       -1.5914904491
 N         -2.9355996212       -0.9017504505       -1.9543431586
 S         -2.6325967509       -2.1396939402       -0.8693791484
 O         -1.2308512309       -2.4767517202       -0.8666828587
 O         -3.5317346511       -3.1981960703       -1.2792177478
 C         -3.1489344004       -1.4905339797        0.7104692516
 C         -2.2281849000       -1.1509631795        1.6799060212
 C         -2.6825526096       -0.5964996991        2.8669541412
 C         -4.0386528495       -0.3924244090        3.0645567316
 C         -4.9526987799       -0.7475976593        2.0836625820
 C         -4.5053958603       -1.2985066796        0.8948509820
 H         -5.1842189506       -1.5976886698        0.1127384423
 H         -6.0079640398       -0.5933050992        2.2408216723
 H         -4.3839275592        0.0432571013        3.9888718416
 H         -1.9637980093       -0.3232511989        3.6232055409
 H         -1.1749957101       -1.3100342896        1.5072910109
 H         -3.8330819514       -1.0053144506       -2.4043390383
 H         -4.2973717613        1.3295024294       -2.5301782988
 H         -3.6487584810        3.6039385996       -1.8309106096
 H         -1.6302121906        3.9691470499       -0.4843995504
 C          0.1566091697        2.0411961101        0.4125378995
 H         -0.0973369500        1.6849890804        1.4232148597
 C          0.6648847198        3.4643172401        0.5119244590
 C          0.1240939601        4.3903456504        1.5591498589
 C          1.5144982902        3.8470095704        1.6857087686
 H          2.3492149301        4.5122654203        1.5232951681
 H          1.7020594604        3.0866644906        2.4299869287
 H          0.0053833801        5.4344819103        1.3119157086
 H         -0.6312706096        4.0042301606        2.2266221192
 H          0.9308126195        3.8781008998       -0.4541630312
 O          1.1606814801       -0.1804365495        1.8881402298
