  62
        -98.93631196
 C         -2.2328527891       -0.8237186008        0.5357895898
 C         -2.2575012691       -0.0324811111       -0.6343355104
 C         -2.3193547400        1.4288458089       -0.4432095507
 C         -2.3131752606        1.9238377592        0.8071635292
 C         -2.3371739715        3.3646229293        1.2519818888
 C         -3.3298070818        4.2910030486        0.5321520283
 C         -2.6516202821        5.3152192287       -0.3788357717
 H         -3.3227621725        6.1673954983       -0.5069130721
 H         -1.7512770124        5.6798445293        0.1198111485
 C         -2.2856864414        4.8027360886       -1.7705685015
 H         -3.1972243012        4.6731301480       -2.3580344817
 H         -1.6894346017        5.5757540388       -2.2607917815
 C         -1.5038189807        3.4874580990       -1.8045173010
 H         -0.7464088409        3.4613616696       -1.0212479307
 H         -0.9713846804        3.4402760091       -2.7570159808
 C         -2.3933559101        2.2392024785       -1.7085213709
 H         -3.4375934702        2.5096840279       -1.8926992213
 H         -2.1185466295        1.5334638085       -2.4987356907
 H         -4.0466539913        3.6968665480       -0.0323536717
 H         -3.8891809223        4.8354446584        1.2945776680
 H         -2.5683385418        3.3280412394        2.3191442888
 H         -1.3233139517        3.7643299398        1.1669970490
 O         -2.2550271605        1.1206393295        1.9098452694
 C         -2.2070929497       -0.2565696205        1.8071207697
 O         -2.1537187597       -0.8562264903        2.9017853999
 H          0.2882913111       -1.3496007694        0.8528041807
 C          0.2976966717       -2.0567157496        0.0346405809
 C         -0.8817065278       -2.6919040403       -0.3349285593
 C         -0.8450494070       -3.6080849905       -1.3772725091
 C          0.3397993433       -3.8503790201       -2.0514414687
 C          1.5017847229       -3.1859490994       -1.7072885985
 C          1.4796900721       -2.2832164991       -0.6487274787
 N          2.6513275116       -1.6178312584       -0.2472138686
 S          2.5279541406       -0.0752270283        0.4249717110
 O          2.1794431202       -0.2014371282        1.8191552510
 O          1.6716618103        0.7676697510       -0.3791312294
 C          4.2279353703        0.4462931926        0.2835914014
 C          5.1418925303       -0.0408652967        1.1991841018
 C          6.4732353902        0.3230164740        1.0756430121
 C          6.8668400200        1.1625705739        0.0438448720
 C          5.9382035000        1.6452063132       -0.8658853984
 C          4.6048409802        1.2837199525       -0.7489050487
 H          3.8460004402        1.6374959120       -1.4284493490
 H          6.2462998499        2.2998563832       -1.6650914784
 H          7.9036658799        1.4440710945       -0.0503930378
 H          7.1972172502       -0.0485748455        1.7826583324
 H          4.7859977804       -0.6830550667        1.9879084618
 H          3.3836686418       -1.6597131582       -0.9431190283
 H          2.4191043331       -3.3616227290       -2.2481952082
 H          0.3537873639       -4.5566956603       -2.8676480885
 H         -1.7458915866       -4.1204626911       -1.6723155292
 C         -2.1358621082       -2.3348930308        0.4263497602
 H         -2.0288276483       -2.7072155205        1.4563415903
 C         -3.4004329277       -2.9103375916       -0.1753696100
 C         -3.8347640371       -4.3018771918        0.1714850702
 C         -4.5890288179       -3.1249828321        0.7109775097
 H         -5.5713580779       -2.9138187227        0.3161299494
 H         -4.4762310383       -2.8768775218        1.7566476097
 H         -4.3044029765       -4.9014467022       -0.5935198798
 H         -3.2155416870       -4.8620301613        0.8556951305
 H         -3.5834723776       -2.5479720820       -1.1802754001
 O         -2.2344952285       -0.5223219314       -1.7950164302
