  62
        -98.93396924
 C         -1.8140573936       -0.6949540907        0.0543378488
 C         -2.3755672942        0.5683088402        0.3621563242
 C         -3.8002099759        0.7786033469        0.0412046419
 C         -4.4852256809       -0.2276979513       -0.5325570854
 C         -5.9420038685       -0.2692091246       -0.9104774628
 C         -6.8630805890       -0.4593191556        0.3055161296
 C         -6.5070949500        0.3924547588        1.5212063709
 H         -7.1593986497        0.0866780162        2.3434911398
 H         -5.4811697187        0.1749370149        1.8239120919
 C         -6.6706982063        1.8985877222        1.3314854884
 H         -6.4707613642        2.3707632514        2.2968573728
 H         -7.7073989171        2.1157713321        1.0645397761
 C         -5.7555739076        2.5453569051        0.2894557991
 H         -5.8072499909        3.6280112419        0.4382720583
 H         -6.1133735937        2.3559565541       -0.7190417130
 C         -4.2836422432        2.1613690020        0.4062734130
 H         -3.6930227366        2.8514294395       -0.2090025462
 H         -3.9469402599        2.3371152498        1.4345529125
 H         -7.8886307271       -0.2483114376       -0.0019660221
 H         -6.8100750422       -1.5080019205        0.6079078407
 H         -6.2095730265        0.6262062736       -1.4635465673
 H         -6.0682277961       -1.1237172033       -1.5788975545
 O         -3.9040853061       -1.4252378678       -0.8191425365
 C         -2.5721530055       -1.6984799680       -0.5495152875
 O         -2.2175027844       -2.8408203985       -0.8912982223
 O         -1.7128273704        1.4948754525        0.9051069240
 C         -0.3508299403       -0.8964643418        0.4074381423
 C          0.5317396554       -0.5337436884       -0.7590906238
 C          0.3502961344       -1.1247016072       -2.0067936408
 C          1.1620432392       -0.7765261497       -3.0700453543
 C          2.1698646644        0.1587160175       -2.9110499490
 C          2.3521769352        0.7628957088       -1.6724534839
 C          1.5364249244        0.4104069434       -0.6042688139
 H          1.6676211863        0.9093497314        0.3440738809
 N          3.3501533871        1.7272306384       -1.4979687639
 S          4.0828204415        1.9935493071       -0.0279190137
 O          3.2046811085        2.7164349401        0.8570663145
 O          5.3219364985        2.6597591877       -0.3685739060
 C          4.4420032604        0.3834301603        0.6534105750
 C          5.0207197865       -0.5761293991       -0.1538650433
 C          5.3308526916       -1.8119108670        0.3906032250
 C          5.0680233618       -2.0646198869        1.7281801421
 C          4.4915913208       -1.0896309920        2.5273344326
 C          4.1722503742        0.1459291973        1.9859177110
 H          3.7110999499        0.9278306516        2.5683910435
 H          4.2836564658       -1.2871394620        3.5666747154
 H          5.3097144485       -3.0271805131        2.1497109336
 H          5.7753104433       -2.5736679211       -0.2291445493
 H          5.2228984209       -0.3518575149       -1.1882938083
 H          3.9713305706        1.8663628585       -2.2800210621
 H          2.8014157010        0.4319016107       -3.7424727773
 H          1.0116822500       -1.2411662578       -4.0328008482
 H         -0.4342214073       -1.8558450804       -2.1298741197
 H         -0.1537891166       -0.1620756265        1.2050024045
 C         -0.0548118951       -2.2779099737        0.9759194171
 C          0.8163689565       -3.2887471147        0.2977195936
 C          1.3113583491       -2.5774369906        1.5183028072
 H          1.3930264853       -3.1255444482        2.4442843873
 H          2.0707076018       -1.8217847855        1.3818692103
 H          0.5273819115       -4.3253010658        0.3786341942
 H          1.2545387062       -3.0327849776       -0.6533821233
 H         -0.8973104756       -2.6730636487        1.5340962818
