  62
        -98.93664767
 C          1.7492232703        1.1298995492       -0.0286275712
 C          2.2809832202       -0.0226950215       -0.6535692401
 C          3.7479599202       -0.1275532315       -0.6600474603
 C          4.4900851803        0.8517694491       -0.1127777914
 C          5.9936337203        0.9334741991       -0.0838615818
 C          6.7189341105       -0.1454509500        0.7433052492
 C          7.1709476003       -1.3663902009       -0.0673309997
 H          7.2832359701       -1.0728702919       -1.1117743600
 H          8.1600200404       -1.6719071205        0.2800836804
 C          6.2662884103       -2.5991168608        0.0224910817
 H          6.4464231005       -3.1051775398        0.9737155122
 H          6.5573184702       -3.2862536116       -0.7750181976
 C          4.7637493503       -2.3339208409       -0.0769678182
 H          4.4008581605       -1.9139240699        0.8641994014
 H          4.2550541903       -3.2920144010       -0.2015405172
 C          4.3514842201       -1.3834564620       -1.2178750891
 H          5.2044704800       -1.1516770127       -1.8540800995
 H          3.5802630800       -1.8525889627       -1.8324110685
 H          7.6054626106        0.3265815904        1.1697162485
 H          6.0853784806       -0.4532359592        1.5746785296
 H          6.3651121501        0.9127342881       -1.1108964718
 H          6.2226565104        1.9160007995        0.3337737072
 O          3.9354505104        1.9507165497        0.4690194476
 C          2.5619124504        2.1105261597        0.5395481077
 O          2.1928444505        3.1493134703        1.1237333967
 H         -1.8451335998       -0.2722050117       -0.8431648091
 C         -1.4599614896       -0.5496674307        0.1234907312
 C         -0.4077787595        0.1484219799        0.6938271502
 C          0.0685573707       -0.2592789488        1.9383096206
 C         -0.4769435092       -1.3520040182        2.5815326018
 C         -1.5194916393       -2.0555657288        2.0037283827
 C         -2.0079461695       -1.6528799800        0.7671306324
 N         -3.0558257196       -2.3556935307        0.1609849033
 S         -4.1597206598       -1.6042677917       -0.8309680873
 O         -5.3094983598       -2.4841244616       -0.8131081661
 O         -3.5922209301       -1.3452848230       -2.1302127776
 C         -4.5696702597       -0.0623726408       -0.0301233487
 C         -4.6429685698        1.0868560284       -0.7894485699
 C         -4.9784236097        2.2819029090       -0.1732525210
 C         -5.2336431094        2.3064046804        1.1886687990
 C         -5.1621564393        1.1420667412        1.9381722201
 C         -4.8300878994       -0.0555269795        1.3260413013
 H         -4.7733012493       -0.9741964189        1.8863740322
 H         -5.3629503991        1.1642531522        2.9971583802
 H         -5.4904610194        3.2377112709        1.6683917281
 H         -5.0356438698        3.1868637084       -0.7567961820
 H         -4.4310407400        1.0228000273       -1.8444040799
 H         -3.4636744495       -3.0961870301        0.7107075041
 H         -1.9418503092       -2.9167297683        2.4986088037
 H         -0.0899935290       -1.6604874572        3.5410373420
 H          0.8858501608        0.2897010016        2.3866603498
 C          0.2454946903        1.3352263892        0.0305786589
 H          0.0844210405        2.2160811199        0.6691465180
 C         -0.2857692999        1.6372738978       -1.3545112313
 C         -1.5036113500        2.4920151576       -1.5264540119
 C         -0.1526390400        3.0323792373       -1.8847870827
 H          0.0915616898        3.1671774762       -2.9278601129
 H          0.2974504701        3.7668209079       -1.2325984836
 H         -1.9818080798        2.8664831785       -0.6341373122
 H         -2.1858850901        2.2532288168       -2.3280155016
 H         -0.1302040101        0.8209724771       -2.0512077305
 O          1.5730987301       -0.9170330220       -1.1860561891
