  62
        -98.94068907
 C          1.7549307699        0.5316976321       -0.3922297861
 C          2.9569369365        0.7314527722       -1.1178493582
 C          4.2041543824        0.6427575450       -0.3473770437
 C          4.1406374541        0.4375111627        0.9806321143
 C          5.3304217258        0.2761023476        1.8808607928
 C          5.7354904225       -1.1992587353        2.0072063450
 C          5.8584336273       -1.9235489139        0.6665891244
 H          6.1774808072       -2.9464707584        0.8776558753
 H          4.8713840942       -1.9847415780        0.2025105717
 C          6.8412180044       -1.2746562079       -0.3181061483
 H          7.5109356542       -0.6002995396        0.2168362262
 H          7.4583097329       -2.0574166659       -0.7642745978
 C          6.1780204809       -0.5193455616       -1.4714680392
 H          5.4383745897       -1.1632899051       -1.9542702662
 H          6.9463709924       -0.2910021831       -2.2149276155
 C          5.4960599240        0.8029333839       -1.0980986849
 H          6.1924001782        1.4306648126       -0.5381956958
 H          5.2396015218        1.3191895219       -2.0280074473
 H          6.6871083969       -1.2512406232        2.5392802137
 H          4.9819455788       -1.7148413753        2.6069359284
 H          6.1601081343        0.8589906993        1.4854069540
 H          5.0682716868        0.6579784813        2.8689550993
 O          2.9694157645        0.3108862264        1.6523869744
 C          1.7469562788        0.3481577702        0.9916283976
 O          0.7652955412        0.2140704795        1.7440497933
 H         -2.1054623924        0.0422356718       -0.2592124961
 C         -1.7982530638        1.0569669292       -0.0718941043
 C         -0.5385029115        1.4897274291       -0.4509026220
 C         -0.1729795817        2.8037958540       -0.1665564270
 C         -1.0391982913        3.6522997602        0.4927892762
 C         -2.3014674243        3.2180417336        0.8600990032
 C         -2.6800591693        1.9140906575        0.5723649514
 N         -3.9493808237        1.4331603137        0.9297876953
 S         -4.8099688518        0.5243438570       -0.1807973176
 O         -4.5139138589        0.9255868372       -1.5367615714
 O         -6.1921488788        0.6538140038        0.2306680309
 C         -4.2921640915       -1.1571370816        0.0876967463
 C         -4.0348222761       -1.9647563072       -1.0022823679
 C         -3.6805343780       -3.2876914248       -0.7884555103
 C         -3.5913871052       -3.7770909166        0.5058472927
 C         -3.8527094164       -2.9523063796        1.5895266839
 C         -4.2105777492       -1.6299238711        1.3822626467
 H         -4.4208195360       -0.9612989874        2.2001104833
 H         -3.7781578707       -3.3357554097        2.5943597000
 H         -3.3133174613       -4.8062820821        0.6701777466
 H         -3.4748863719       -3.9297529562       -1.6303804955
 H         -4.1070745603       -1.5399378583       -1.9909615478
 H         -4.5401723762        2.1030940572        1.4004718734
 H         -2.9839014417        3.8815587267        1.3697495491
 H         -0.7358280062        4.6644649701        0.7154422562
 H          0.8099889019        3.1471117824       -0.4607861459
 C          0.4499069587        0.6024260957       -1.1640931859
 H          0.7211596074        1.1007242602       -2.1108439750
 C         -0.1250416154       -0.7552368788       -1.5399551756
 C          0.7639257281       -1.9484093404       -1.7189805537
 C         -0.1900680398       -1.8918802535       -0.5656754333
 H         -1.0592695093       -2.5328748357       -0.5849232224
 H          0.2033967352       -1.7211634208        0.4237143090
 H          1.8179317491       -1.8206118180       -1.5189557460
 H          0.5533392398       -2.6268287912       -2.5318798337
 H         -0.9523062508       -0.6636888855       -2.2381953627
 O          2.9836837558        0.9790272974       -2.3533722149
