  62
        -98.94740194
 C         -2.5373935334       -0.2252125167       -0.0057723312
 C         -2.2616885136       -1.2524900700       -0.9381149972
 C         -1.6944531727       -2.4860775961       -0.3839906781
 C         -1.4770024617       -2.5832529307        0.9403578561
 C         -0.9266778488       -3.7834626691        1.6626493902
 C          0.6058368303       -3.8613588772        1.6535638934
 C          1.2223217856       -4.2780717353        0.3178205515
 H          2.2670354225       -4.5304297861        0.5095926638
 H          0.7286754382       -5.1796416489       -0.0472231158
 C          1.1719592874       -3.1864972363       -0.7595532099
 H          0.9984823755       -2.2146578170       -0.2910060888
 H          2.1415283941       -3.1165485785       -1.2595756169
 C          0.1237060716       -3.4039505322       -1.8510950667
 H          0.1475522713       -2.5313679556       -2.5098509298
 H          0.3874752680       -4.2837459915       -2.4435254230
 C         -1.3115389458       -3.5775005319       -1.3377417650
 H         -1.4251272864       -4.5529877817       -0.8643990390
 H         -1.9887518112       -3.5211077278       -2.1940327293
 H          1.0039678514       -2.8859721724        1.9444916103
 H          0.9018270678       -4.5887576368        2.4132456063
 H         -1.2623803072       -3.7008018678        2.6986462740
 H         -1.3432120722       -4.6948525285        1.2322663755
 O         -1.7705673257       -1.5784492056        1.8069309542
 C         -2.2598796033       -0.3639499718        1.3541591212
 O         -2.4275112950        0.4870507193        2.2498656662
 O         -2.4857395114       -1.1444299156       -2.1755998285
 C         -3.0317983397        1.1206188519       -0.5083710479
 C         -1.9968072929        2.1636470496       -0.1626248487
 C         -2.2843441534        3.3786052042        0.4439512193
 C         -1.2592214141        4.2396130293        0.7988692445
 C          0.0629603894        3.9032374038        0.5758707175
 C          0.3586685975        2.6986923446       -0.0541572009
 C         -0.6704457714        1.8594951295       -0.4421004821
 H         -0.4322875670        0.9269410347       -0.9333820666
 N          1.6874899981        2.3182738420       -0.3148068502
 S          2.0346097698        0.6631909465       -0.3201694859
 O          1.7127079366        0.1382892187       -1.6231591725
 O          1.4230647959        0.0132378636        0.8172582417
 C          3.8065925984        0.7087918913       -0.1263993192
 C          4.3630546801        0.4856661297        1.1184658012
 C          5.7405561887        0.5534600551        1.2593139504
 C          6.5330681119        0.8450483049        0.1593719853
 C          5.9601158253        1.0652453619       -1.0846172012
 C          4.5840238418        0.9968797117       -1.2324777572
 H          4.0931756764        1.1493389881       -2.1794500827
 H          6.5795153114        1.2883582202       -1.9382044396
 H          7.6043723832        0.8980392018        0.2718431899
 H          6.1882569789        0.3785988942        2.2243275278
 H          3.7064675209        0.2555540322        1.9424733024
 H          2.3598480577        2.8429390997        0.2280354069
 H          0.8602769584        4.5613739214        0.8860146079
 H         -1.4940181362        5.1774651394        1.2792130028
 H         -3.3070345561        3.6433009964        0.6571029857
 H         -3.0814394421        1.0262733867       -1.6037868559
 C         -4.4142302512        1.4322131957        0.0222796250
 C         -5.3369774632        2.3215756958       -0.7551557201
 C         -5.6064691708        0.8500171922       -0.6738368085
 H         -6.4362446292        0.5074187467       -0.0742310283
 H         -5.4207269625        0.2444237606       -1.5489411858
 H         -5.9870447784        2.9906283594       -0.2120032851
 H         -4.9754198631        2.7186102415       -1.6915991182
 H         -4.4404232731        1.4823993736        1.1049842027
