  62
        -98.94175393
 C         -1.5510913776       -1.4923266719        0.1654438280
 C         -2.4888774547       -0.8886380461        1.0420158714
 C         -3.3021834046        0.1968178621        0.4786891256
 C         -3.0934825055        0.5797234043       -0.7938177357
 C         -3.8685394681        1.6509451699       -1.5043956172
 C         -3.2011986357        3.0256442025       -1.3707710748
 C         -2.7945671330        3.3763857901        0.0600477220
 H         -2.0107689660        2.6894113287        0.3875375494
 H         -2.3583016026        4.3770691706        0.0405787542
 C         -3.9506708471        3.3495262226        1.0698417670
 H         -3.8806058621        4.2351705539        1.7048587497
 H         -4.9044859881        3.4042851545        0.5436351127
 C         -3.9573881477        2.1361574029        2.0016867768
 H         -4.6668281014        2.3335295338        2.8098730818
 H         -2.9705390937        2.0172651948        2.4562807315
 C         -4.3581110963        0.8013193170        1.3605935430
 H         -5.2955861078        0.9231625474        0.8134720109
 H         -4.5241922682        0.0812420854        2.1674152981
 H         -3.8905752630        3.7815417202       -1.7513443672
 H         -2.3076226912        3.0340049842       -1.9975062006
 H         -3.9252246676        1.3857740167       -2.5617563816
 H         -4.8774265343        1.6843054066       -1.0968628045
 O         -2.1228731840        0.0425372033       -1.5732789434
 C         -1.3223626818       -1.0024679844       -1.1214893490
 O         -0.4735458172       -1.3749593504       -1.9503587579
 O         -2.6472609866       -1.2518127715        2.2385183884
 C         -0.7672834830       -2.6808015848        0.6932377666
 C          0.6975284625       -2.5452483362        0.3681977952
 C          1.3586805794       -3.3701915185       -0.5320073439
 C          2.7016100888       -3.1771540694       -0.8044939872
 C          3.4155113533       -2.1703031234       -0.1812082883
 C          2.7628621548       -1.3366342490        0.7183315377
 C          1.4159207857       -1.5298221271        0.9883949481
 H          0.9071332139       -0.8759648123        1.6865616093
 N          3.4887965147       -0.3145740274        1.3664943115
 S          4.1567474912        0.9153961046        0.4530673080
 O          4.9162971815        0.3413487978       -0.6268387872
 O          4.8905575677        1.7364450044        1.3887080995
 C          2.7823662049        1.8543443280       -0.1932750589
 C          1.9233758825        1.2640032469       -1.0995352803
 C          0.8530500243        2.0011622474       -1.5821778333
 C          0.6667034186        3.3087932356       -1.1610621993
 C          1.5352144323        3.8853297991       -0.2470320074
 C          2.6001621553        3.1507916241        0.2474149259
 H          3.3004066454        3.5556875422        0.9601449802
 H          1.3840152219        4.9013317073        0.0802640802
 H         -0.1600310462        3.8833457094       -1.5477269969
 H          0.1699514192        1.5366763567       -2.2767395284
 H          2.0825063550        0.2460516623       -1.4194225048
 H          2.9996222442        0.0878408809        2.1537529554
 H          4.4579694809       -2.0011870674       -0.3948583716
 H          3.2009859030       -3.8209691382       -1.5126581868
 H          0.8149857729       -4.1484463353       -1.0414445474
 H         -0.8786766427       -2.6175736151        1.7884925555
 C         -1.3442009939       -4.0272692724        0.2788633462
 C         -2.8203585733       -4.2088986793        0.0949281748
 C         -1.9038031153       -4.2811028466       -1.0875825254
 H         -1.7288473108       -5.2457193163       -1.5413297266
 H         -1.9036320032       -3.4632039344       -1.7911971199
 H         -3.2739234134       -5.1207414976        0.4532138222
 H         -3.4497213876       -3.3374095533        0.2023424185
 H         -0.8145916895       -4.8513102718        0.7473549977
