  62
        -98.94312906
 C         -1.8321295181       -0.6312190338       -0.0318077206
 C         -2.3568970713        0.6164698477        0.3959280888
 C         -3.6995969704        0.9625994123       -0.0871223455
 C         -4.3404033100        0.1105892687       -0.9076055946
 C         -5.7291348394        0.3097328799       -1.4403673554
 C         -6.7755842026       -0.3256666075       -0.5143112943
 C         -6.6068488938        0.0514561738        0.9574251126
 H         -7.4172991438       -0.4272321358        1.5112534653
 H         -5.6703762339       -0.3709939801        1.3286375252
 C         -6.6231034795        1.5617892058        1.2313793393
 H         -7.0636500937        2.0879854643        0.3837884139
 H         -7.2590683894        1.7538974693        2.0981121962
 C         -5.2521294162        2.1648397338        1.5438197588
 H         -5.4054409104        3.1754063186        1.9320875134
 H         -4.7663269864        1.5829944015        2.3312896935
 C         -4.2837726384        2.2734886201        0.3589162524
 H         -3.4356027584        2.8869627819        0.6774579283
 H         -4.7771933891        2.7784983801       -0.4742964125
 H         -7.7674925260       -0.0260438217       -0.8573876420
 H         -6.6994989251       -1.4119863210       -0.6000898782
 H         -5.7913049683       -0.1621574758       -2.4223648748
 H         -5.9218012983        1.3754666048       -1.5473466774
 O         -3.8034880923       -1.0668713134       -1.3087354495
 C         -2.5475086032       -1.4764921172       -0.8811081872
 O         -2.2138359322       -2.5904990178       -1.3267688264
 O         -1.7312031969        1.4034970230        1.1570194868
 C         -0.4437833281       -1.0016399049        0.4664699346
 C          0.5816457607       -0.7582615954       -0.6152822315
 C          0.7158051124       -1.6110437872       -1.7068130837
 C          1.6406485553       -1.3388388505       -2.6976095308
 C          2.4600321019       -0.2266207973       -2.6141671521
 C          2.3345777516        0.6314794247       -1.5289962652
 C          1.4000700287        0.3606449087       -0.5385561041
 H          1.3007990470        1.0487306385        0.2878692358
 N          3.1511559956        1.7711442818       -1.4161953671
 S          3.9394507671        2.0405510907        0.0351448761
 O          3.0191346352        2.5373326447        1.0249896912
 O          5.0417081266        2.9135730307       -0.3059202078
 C          4.5553389095        0.4342244199        0.5064318082
 C          5.5918110560       -0.1045149632       -0.2310358812
 C          6.0503856040       -1.3730199322        0.0831706826
 C          5.4658448382       -2.0788477349        1.1237557375
 C          4.4302190574       -1.5225246497        1.8578321271
 C          3.9647242254       -0.2547372064        1.5453225491
 H          3.1609312986        0.2152508736        2.0894938268
 H          3.9818828949       -2.0726270401        2.6698953565
 H          5.8205582872       -3.0677412551        1.3673505030
 H          6.8586159257       -1.8073184035       -0.4827388684
 H          6.0303568239        0.4814206515       -1.0224542645
 H          3.7837770087        1.9019112905       -2.1927253369
 H          3.1827384988       -0.0164324251       -3.3880126886
 H          1.7283835708       -2.0038287962       -3.5432960356
 H          0.0666724252       -2.4680287461       -1.7884088377
 H         -0.2378939340       -0.2927742237        1.2802624423
 C         -0.3635645668       -2.4083561868        1.0241987821
 C          0.7564290541       -2.7494100410        1.9585404713
 C         -0.6440042863       -2.6317466229        2.4787818509
 H         -1.1666892721       -3.5305356778        2.7698311365
 H         -0.8959938302       -1.7684277047        3.0779783063
 H          1.2013958427       -3.7300192516        1.8940984565
 H          1.4518687678       -1.9607925236        2.2016860019
 H         -0.6994719364       -3.1703634621        0.3339756295
