  62
        -98.93431324
 C          2.5105305904        0.1287074861       -0.7049970501
 C          2.4385540931        0.7762415627        0.5527317602
 C          1.9713869160        2.1674476598        0.5243987044
 C          1.6203647929        2.7334537405       -0.6437555380
 C          1.0905384939        4.1296024669       -0.8267794263
 C         -0.4151654877        4.2498556714       -0.5519527098
 C         -0.8134971378        4.2155886481        0.9245605619
 H         -0.1962217114        4.9188847853        1.4851421834
 H         -1.8454705057        4.5675664010        0.9827259130
 C         -0.7334814272        2.8243394679        1.5686478850
 H         -1.6279791891        2.6556800552        2.1739956443
 H         -0.7279565743        2.0607742953        0.7869573153
 C          0.4695972255        2.6123078028        2.4880972676
 H          0.3766483311        3.2555513984        3.3668094727
 H          0.4607470721        1.5727001433        2.8255820646
 C          1.8296700666        2.8830573209        1.8342868125
 H          2.6083859793        2.5044629893        2.5014017417
 H          1.9753310653        3.9544680050        1.6974372954
 H         -0.7494535746        5.1995662826       -0.9768181432
 H         -0.9294038868        3.4439463084       -1.0822636687
 H          1.6386529886        4.8211474671       -0.1858957516
 H          1.2751644450        4.3988793067       -1.8690394492
 O          1.7217302541        2.0823586009       -1.8342535583
 C          2.1361242830        0.7627758414       -1.8876922515
 O          2.1420501068        0.2706574355       -3.0380767473
 O          2.7384167195        0.2266041210        1.6425886418
 C          2.8733039515       -1.3511546729       -0.7792917290
 C          1.9272908922       -2.0781158526        0.1517222907
 C          2.2236978202       -2.9860745341        1.1578251551
 C          1.2113052477       -3.5286411951        1.9359740024
 C         -0.1094801351       -3.1735588042        1.7525814059
 C         -0.4232778625       -2.2610885655        0.7485611917
 C          0.5840113001       -1.7623536638       -0.0538297275
 H          0.3230824556       -1.0804154915       -0.8505011075
 N         -1.7431534891       -1.8101462786        0.5808038351
 S         -2.2116414776       -0.8906095474       -0.7436733933
 O         -2.0959741572       -1.6631231786       -1.9635897077
 O         -1.5287254098        0.3771461522       -0.7143485337
 C         -3.9302357111       -0.6563285452       -0.3346240566
 C         -4.2725316656        0.3867327118        0.5045168521
 C         -5.6023457387        0.5556316030        0.8559535637
 C         -6.5622256716       -0.3178217048        0.3664545600
 C         -6.2042484847       -1.3587369140       -0.4770489853
 C         -4.8757089499       -1.5330928068       -0.8319057142
 H         -4.5521841865       -2.3204036886       -1.4937123757
 H         -6.9531374113       -2.0336365558       -0.8589465346
 H         -7.5964759239       -0.1842238241        0.6415203218
 H         -5.8843201031        1.3659713091        1.5086107588
 H         -3.4911504230        1.0430299718        0.8518059664
 H         -2.4484489360       -2.4767644765        0.8590440600
 H         -0.8870430629       -3.5802647354        2.3799986794
 H          1.4668895846       -4.2340770107        2.7123415273
 H          3.2364853500       -3.2757897918        1.3699542052
 H          2.6022661072       -1.6633538820       -1.8034287410
 C          4.3839309778       -1.4940780573       -0.6837937323
 C          5.1669694564       -1.6268932333        0.5838748389
 C          5.1238357518       -2.7657334263       -0.3924915412
 H          6.0141023842       -2.9654244849       -0.9708669897
 H          4.5592197778       -3.6519355613       -0.1546209640
 H          6.0833144566       -1.0602710719        0.6658062242
 H          4.6175458460       -1.6830310410        1.5088443235
 H          4.8344723810       -0.8611914793       -1.4467596193
