  62
        -98.95134590
 C         -2.3452035793       -0.0410469895       -0.1116925597
 C         -1.5967563192       -0.5666909188        0.9678237506
 C         -1.3402035289       -2.0111743487        0.9254098114
 C         -1.7245444787       -2.7231662094       -0.1494321582
 C         -1.5259307884       -4.2007496395       -0.3520723674
 C         -0.1281863583       -4.5708148295       -0.8669502972
 C          0.9863760017       -4.5109118986        0.1781318528
 H          0.6815639818       -5.0670334382        1.0658697331
 H          1.8508491718       -5.0232378387       -0.2490436970
 C          1.4086301814       -3.0900157783        0.5768510120
 H          2.5002211913       -3.0324095081        0.6098634719
 H          1.0825843212       -2.3803401188       -0.1875359684
 C          0.8936294813       -2.6329035677        1.9407601717
 H          1.3189890114       -3.2676835371        2.7218973221
 H          1.2448060810       -1.6129291675        2.1062463812
 C         -0.6331086987       -2.6443946079        2.0876734417
 H         -0.9863564585       -3.6675273179        2.2199348123
 H         -0.8914542188       -2.0683735475        2.9800711514
 H         -0.1817549181       -5.5917324397       -1.2530341266
 H          0.1236708615       -3.9104946999       -1.7008652876
 H         -1.7251613383       -4.7321752490        0.5792610029
 H         -2.2623201683       -4.5132348801       -1.0957412172
 O         -2.3771690689       -2.1660107801       -1.2040223585
 C         -2.7079371792       -0.8220842902       -1.2080961792
 O         -3.3229450793       -0.4452558709       -2.2285773694
 O         -1.1729824993        0.1313001019        1.9266628802
 C         -2.6963331597        1.4370130104       -0.1494813605
 C         -1.4259919498        2.2519109006       -0.1791982310
 C         -1.1968159001        3.3667275511        0.6170846584
 C          0.0114582598        4.0398137614        0.5468478180
 C          1.0207926199        3.6032736111       -0.2922764817
 C          0.7968377001        2.4929159406       -1.0983374611
 C         -0.4294457998        1.8507264404       -1.0596554807
 H         -0.5940059396        0.9937088400       -1.6963695203
 N          1.7989059202        1.9761680804       -1.9465422608
 S          2.3147427306        0.4113730407       -1.6307753600
 O          3.3948515006        0.1766037704       -2.5647541799
 O          1.2020323308       -0.4993975296       -1.7015555195
 C          2.9766672806        0.5006144917        0.0237978000
 C          4.3491890506        0.5162559121        0.1851291399
 C          4.8764765005        0.6647251029        1.4572966299
 C          4.0256308505        0.8113158534        2.5428475098
 C          2.6515191705        0.8004545129        2.3637922898
 C          2.1157361205        0.6412665021        1.0941263299
 H          1.0480578805        0.6182729518        0.9410677099
 H          1.9796401105        0.9121073533        3.2000974497
 H          4.4337549705        0.9335656740        3.5336510397
 H          5.9454025605        0.6701356433        1.5974012898
 H          4.9694124506        0.4045228118       -0.6895589900
 H          2.6061588401        2.5782360705       -2.0376085012
 H          1.9729165797        4.1111142413       -0.3238508220
 H          0.1767393996        4.9047042717        1.1708071876
 H         -1.9612425301        3.7046882213        1.2973362382
 H         -3.2238823697        1.5969027697       -1.1016379806
 C         -3.6237831497        1.7958408808        0.9921696593
 C         -4.5998747800        2.9229767805        0.8432097187
 C         -5.0867799197        1.5059200404        0.8508337795
 H         -5.6279193296        1.1483299808        1.7138476197
 H         -5.4171498396        1.0708648698       -0.0815984603
 H         -4.8124147901        3.5395773109        1.7034173384
 H         -4.6097060601        3.4551131800       -0.0960948516
 H         -3.1729920897        1.6302544214        1.9635942694
