  62
        -98.93854941
 C         -2.2427851530       -0.7552371967       -0.0688196191
 C         -3.2471644661       -0.5996452155        0.9187080019
 C         -4.1054917006        0.5901458164        0.8059853487
 C         -3.8824128165        1.4698438076       -0.1851901755
 C         -4.5960724390        2.7687096580       -0.4657848955
 C         -6.1259204645        2.7791671824       -0.3398244522
 C         -6.8185915328        1.4619780386       -0.7188347552
 H         -7.6176388762        1.6742698969       -1.4316074456
 H         -6.1098948433        0.7954618860       -1.2133482885
 C         -7.4396961063        0.7464879091        0.4833104807
 H         -7.9404897388        1.4871308032        1.1105677381
 H         -8.2035771952        0.0534170267        0.1228607740
 C         -6.4660774802       -0.0597794293        1.3419356559
 H         -6.1299558504       -0.9425330737        0.7914158243
 H         -7.0088821487       -0.4175828912        2.2200268024
 C         -5.2146374187        0.6991561468        1.8126429639
 H         -4.8470275857        0.2117397103        2.7195846862
 H         -5.4458691712        1.7356656689        2.0454369008
 H         -6.4887743711        3.5804353917       -0.9858325911
 H         -6.4056441823        3.0469946396        0.6780825305
 H         -4.1767811530        3.5348274846        0.1931424777
 H         -4.3103925414        3.0339054905       -1.4866739276
 O         -2.8894480970        1.2934592554       -1.1019297841
 C         -2.0517222729        0.1891933059       -1.0758317431
 O         -1.2089216437        0.1751359107       -1.9947255879
 O         -3.4164095483       -1.4189667324        1.8598887849
 C         -1.3350474026       -1.9713507049        0.0237517688
 C          0.0409330080       -1.5002804298        0.4237222592
 C          0.3210890881       -1.2797913209        1.7696206903
 C          1.5486480343       -0.7808432157        2.1621135437
 C          2.5191740268       -0.4808848779        1.2215703119
 C          2.2423378540       -0.6795311121       -0.1237457265
 C          1.0172742376       -1.2042762730       -0.5144552609
 H          0.8113653766       -1.3402446569       -1.5642945288
 N          3.2150983495       -0.3639812784       -1.0883692174
 S          3.9956143918        1.1173710118       -0.9681286275
 O          3.1726321506        2.1118063625       -0.3189312368
 O          4.4380341874        1.4235523992       -2.3113464756
 C          5.4228471458        0.7543491925        0.0356974117
 C          6.2305261279       -0.3022309301       -0.3375652785
 C          7.3497931513       -0.5914688031        0.4263636978
 C          7.6436384849        0.1782082688        1.5421760153
 C          6.8254484165        1.2381123887        1.9014833546
 C          5.7033130073        1.5318959793        1.1421299968
 H          5.0345181910        2.3418107199        1.3870779842
 H          7.0551942696        1.8360487822        2.7687701669
 H          8.5152740931       -0.0492197704        2.1353028911
 H          7.9880832693       -1.4152146195        0.1502631926
 H          5.9684904761       -0.8737649344       -1.2120927953
 H          2.9011589470       -0.5205647650       -2.0357962430
 H          3.4739310387       -0.0788304020        1.5186979121
 H          1.7530585142       -0.6194713832        3.2096428526
 H         -0.4447422965       -1.4913273499        2.5026806327
 H         -1.7418438754       -2.5728501098        0.8476486587
 C         -1.3566157313       -2.8021001374       -1.2419501748
 C         -0.8060514298       -4.1956583778       -1.2114493317
 C         -2.2834227807       -3.9759237788       -1.3304650224
 H         -2.7625958840       -4.1825188299       -2.2758074287
 H         -2.9032452191       -4.1888626095       -0.4718836246
 H         -0.2685488050       -4.5572589047       -2.0746159036
 H         -0.4215255445       -4.5564968113       -0.2696793113
 H         -1.2142519035       -2.2189276948       -2.1435917216
