  62
        -98.93777947
 C          1.9859731998        0.9257779791        0.0013660644
 C          2.3107613455       -0.0284676584        0.9901306647
 C          2.5577437105       -1.4032613024        0.5263417776
 C          2.4459940931       -1.6872673530       -0.7848657884
 C          2.5732712515       -2.9998414960       -1.5298820019
 C          3.2581927651       -4.2029958352       -0.8858753558
 C          4.7509496504       -4.0238251779       -0.6137638450
 H          5.1086607629       -4.9119336272       -0.0882623523
 H          5.2755794099       -3.9681042245       -1.5706808132
 C          5.1288965772       -2.7842516249        0.1932358025
 H          6.2128474882       -2.7955129157        0.3353904031
 H          4.8886745110       -1.8860486097       -0.3793174222
 C          4.4807785911       -2.6790913124        1.5727680731
 H          4.9676306953       -1.8555495993        2.1017767633
 H          4.6648490719       -3.5949129416        2.1374858949
 C          2.9671687608       -2.3957519616        1.5759954754
 H          2.3882813047       -3.3118843673        1.4800952653
 H          2.7071225442       -1.9469284573        2.5394151548
 H          2.7385624896       -4.4889171216        0.0239608586
 H          3.1474450162       -5.0337717994       -1.5881718205
 H          1.5489691120       -3.2851098713       -1.7959641540
 H          3.0814099626       -2.7584219416       -2.4688827853
 O          2.1173631105       -0.7327421450       -1.7038304590
 C          1.8727939693        0.5812159355       -1.3438936224
 O          1.5802869481        1.3291631716       -2.2967742517
 H         -0.4754933981        0.7708427246        0.3315053386
 C         -0.7166735282        1.7847156417        0.0458004906
 C          0.2843406418        2.7471468453        0.0211311787
 C         -0.0557512627        4.0466702824       -0.3344000583
 C         -1.3621544245        4.3628376623       -0.6654946057
 C         -2.3513124091        3.3978012539       -0.6541957660
 C         -2.0202758423        2.0919010941       -0.3052695344
 N         -2.9931356126        1.0804732639       -0.3431943614
 S         -2.7507499388       -0.3945540518        0.4229695509
 O         -2.4741789116       -0.1998216002        1.8301744238
 O         -1.7827198986       -1.1606228057       -0.3229120282
 C         -4.3721107302       -1.1066357187        0.2152444969
 C         -5.2702804304       -1.0796197155        1.2651539681
 C         -6.5366961903       -1.6115982276        1.0782797994
 C         -6.8823832448       -2.1561120007       -0.1492256156
 C         -5.9698796381       -2.1770045500       -1.1938222434
 C         -4.7020205115       -1.6477391464       -1.0131435018
 H         -3.9562297371       -1.6487497150       -1.7912091505
 H         -6.2406747436       -2.6032925212       -2.1462509445
 H         -7.8681047008       -2.5695718107       -0.2925092505
 H         -7.2469614414       -1.5994335944        1.8891310152
 H         -4.9530709682       -0.6533959843        2.2032386467
 H         -3.9399577018        1.4193953296       -0.2504165474
 H         -3.3669278517        3.6438152131       -0.9227787908
 H         -1.6126612621        5.3766743752       -0.9385304242
 H          0.7036215512        4.8113118656       -0.3535958890
 C          1.6872528994        2.3520913459        0.4168197359
 H          1.7429826339        2.3544151443        1.5169622383
 C          2.7442004043        3.2933092234       -0.1267275891
 C          3.1823590892        4.4892977148        0.6632381931
 C          4.0951745662        3.3098662573        0.5216346325
 H          4.9683383791        3.4005637187       -0.1067422577
 H          4.2379508838        2.6659280056        1.3774374223
 H          3.4328232640        5.3944767961        0.1307979177
 H          2.7167841397        4.6531442092        1.6234664564
 H          2.7059851653        3.3751489133       -1.2072970831
 O          2.3851909936        0.2542051443        2.2189007271
