  62
        -98.94432512
 C         -1.9189798374       -1.0556009507       -0.2345190520
 C         -2.4505358428        0.0813305549       -0.8890406788
 C         -3.9073082340        0.2525682144       -0.7856514832
 C         -4.6356806487       -0.6674262892       -0.1270708860
 C         -6.1162462984       -0.5847425705        0.1038422565
 C         -6.4304062988        0.1239866462        1.4289969669
 C         -5.6877603997        1.4476009525        1.6125999408
 H         -6.0094829273        1.8713677287        2.5663937032
 H         -4.6168165285        1.2482236642        1.6943034393
 C         -5.9261669194        2.4700956453        0.4927390196
 H         -6.8212866798        2.2018537839       -0.0696220354
 H         -6.1079169378        3.4477728645        0.9440423998
 C         -4.7523693511        2.6377179517       -0.4742119283
 H         -3.8330931998        2.8148107663        0.0901549325
 H         -4.9378602929        3.5264592984       -1.0834178543
 C         -4.5074400176        1.4674074270       -1.4352144095
 H         -5.4358593599        1.2126842586       -1.9504670677
 H         -3.7789594942        1.7977511392       -2.1816584140
 H         -7.5066444206        0.2982912683        1.4806740677
 H         -6.1537503477       -0.5406241701        2.2507264279
 H         -6.5792872764       -0.0521949051       -0.7244379134
 H         -6.5161875247       -1.5994068326        0.1408701246
 O         -4.0914863737       -1.7658201222        0.4565374980
 C         -2.7231377311       -1.9795705111        0.4321411197
 O         -2.3502600504       -3.0082663568        1.0316068780
 H          1.7749106586        0.0302491797       -1.2952345191
 C          1.4130317952        0.4431207689       -0.3689822044
 C          0.3164270022       -0.1067064992        0.2753445759
 C         -0.1127905559        0.4711875328        1.4681971319
 C          0.5186980366        1.5858731779        1.9825745085
 C          1.6072282043        2.1385428550        1.3298700501
 C          2.0543518709        1.5616097218        0.1487717158
 N          3.1581889445        2.0976408658       -0.5360934561
 S          4.3634795308        1.0680518173       -1.0700111891
 O          5.5121474251        1.9238779048       -1.2701326699
 O          3.9179149400        0.3243471000       -2.2196150247
 C          4.6420911353       -0.0228020916        0.3128310453
 C          4.1105058713       -1.2957673911        0.3023811482
 C          4.2704438593       -2.0965332575        1.4223870352
 C          4.9536559517       -1.6123867371        2.5269546965
 C          5.4882011583       -0.3327465743        2.5190770598
 C          5.3280691113        0.4735132761        1.4043703468
 H          5.7365530687        1.4699262695        1.3555524413
 H          6.0240898139        0.0379872339        3.3779345021
 H          5.0720459276       -2.2379237974        3.3976475932
 H          3.8573514994       -3.0927608622        1.4300407146
 H          3.5887431853       -1.6365515329       -0.5765752280
 H          3.5551135523        2.9187056566       -0.1027395055
 H          2.0981622021        3.0145536224        1.7257026042
 H          0.1640573210        2.0286221625        2.9011671856
 H         -0.9627924492        0.0391065602        1.9792761516
 C         -0.4224348918       -1.3095641170       -0.2584757001
 H         -0.2468205324       -2.1537161296        0.4246638873
 C          0.0112934623       -1.7142743465       -1.6520694608
 C          1.1450708950       -2.6744044908       -1.8438070326
 C         -0.2613843340       -3.1099955657       -2.1231424556
 H         -0.5656624561       -3.2577610753       -3.1484576325
 H         -0.7361325049       -3.7837884545       -1.4244899021
 H          1.8169245442       -2.5210644789       -2.6756961362
 H          1.6185568723       -3.0679723378       -0.9568114013
 H         -0.1098609208       -0.9155899478       -2.3755230936
 O         -1.7482015741        0.9124776566       -1.5217408712
