  62
        -98.93914181
 C         -1.7881879902       -1.0339748607       -0.1161268404
 C         -2.9423077404       -1.0710947710        0.7089553393
 C         -4.1697336905       -0.4496912614        0.1844596789
 C         -4.1470051703        0.1224632385       -1.0333855611
 C         -5.2364138303        0.7906088182       -1.8457452614
 C         -6.5615407806        1.1838884478       -1.1986923817
 C         -6.4612219412        2.3132195179       -0.1735963417
 H         -6.2275974613        3.2413848879       -0.7015304617
 H         -7.4392184014        2.4360952776        0.2967168280
 C         -5.4066301114        2.1259500182        0.9144294985
 H         -4.4130118313        2.0958908185        0.4621413488
 H         -5.4362196218        3.0056883682        1.5631734985
 C         -5.5879932413        0.8925895782        1.7969851785
 H         -6.5896236414        0.8957002579        2.2312259283
 H         -4.8677591815        0.9664932684        2.6163538787
 C         -5.3593001207       -0.4598037417        1.1005735586
 H         -6.2503693805       -0.7868911720        0.5700683184
 H         -5.1450213707       -1.2043979417        1.8726891987
 H         -7.0401029405        0.3125785577       -0.7614155018
 H         -7.2120246205        1.5296299276       -2.0067613119
 H         -4.7759062605        1.6801632083       -2.2876438013
 H         -5.4462222899        0.1085070781       -2.6771539014
 O         -3.0157839201        0.1316265489       -1.7943178208
 C         -1.8204493801       -0.4239053308       -1.3682520405
 O         -0.8973304399       -0.2939105905       -2.1990416802
 O         -2.9503970305       -1.6192344610        1.8432191293
 C         -0.5362003402       -1.6912664103        0.4387677799
 C          0.4281696894       -0.6848935800        1.0192205701
 C          0.8477940591       -0.7720955099        2.3411105502
 C          1.7689476687        0.1271740604        2.8509075404
 C          2.2895273286        1.1307118306        2.0538392905
 C          1.8685571089        1.2300379904        0.7342596504
 C          0.9522214193        0.3238100601        0.2234378802
 H          0.6361349495        0.4041925700       -0.8059537399
 N          2.4091970688        2.2377626105       -0.0945788495
 S          4.0708196189        2.1380760910       -0.3072557891
 O          4.7285352184        2.6894434112        0.8508638211
 O          4.3485011690        2.7937950910       -1.5654124090
 C          4.3940458194        0.3871852311       -0.4149072089
 C          4.9866821694       -0.2686328887        0.6445885212
 C          5.1560544798       -1.6417869686        0.5706777413
 C          4.7260625703       -2.3313774088       -0.5520131788
 C          4.1309687603       -1.6578759390       -1.6077278589
 C          3.9589211599       -0.2853288191       -1.5395162690
 H          3.5012096800        0.2694835508       -2.3434163292
 H          3.7940591107       -2.1947315092       -2.4802831890
 H          4.8565145806       -3.4008477088       -0.6058840787
 H          5.6172630797       -2.1695788585        1.3895709815
 H          5.3042171190        0.3066340114        1.4985807213
 H          1.9541554790        2.2794718204       -0.9961747696
 H          3.0154270183        1.8350552008        2.4270441807
 H          2.0857861085        0.0455506205        3.8792783305
 H          0.4403363692       -1.5470116500        2.9735259101
 H         -0.8898399902       -2.3279838204        1.2605261998
 C          0.1839880303       -2.5645453902       -0.5719217699
 C          1.1017037905       -3.6406202199       -0.0785464696
 C         -0.2071456992       -4.0036112803       -0.7121546899
 H         -0.2029932788       -4.4438269803       -1.6979623399
 H         -0.9996834492       -4.3699431405       -0.0758727101
 H          2.0099478807       -3.8307805096       -0.6281127194
 H          1.1991274703       -3.7635154598        0.9891219604
 H          0.4651768904       -2.0342066301       -1.4722463798
