  62
        -98.94638565
 C          1.2107509534        1.2384329337        0.0381440649
 C          1.6397555511        0.3497430310        1.0543688792
 C          2.4620229479       -0.7816933904        0.6149895543
 C          2.7104797992       -0.9534313805       -0.6958464671
 C          3.5405311817       -2.0518156846       -1.3039081311
 C          5.0508024455       -1.7763318055       -1.2808978924
 C          5.7167110120       -1.8889051332        0.0911121999
 H          5.4545411064       -2.8451081503        0.5450542345
 H          6.7955379516       -1.8945239696       -0.0768934959
 C          5.3755553413       -0.7462136337        1.0577440043
 H          4.9624718919        0.0951382833        0.4966505429
 H          6.2895937239       -0.3911370502        1.5390508072
 C          4.3973018197       -1.1270299368        2.1689338098
 H          4.8550204481       -1.8747603680        2.8205790776
 H          4.1964928868       -0.2359647784        2.7692026100
 C          3.0550486435       -1.6726122183        1.6645095653
 H          3.1846681982       -2.6835111668        1.2784675328
 H          2.3597115192       -1.7043048473        2.5070175194
 H          5.5230676167       -2.5005412574       -1.9487164338
 H          5.2307083533       -0.7802215000       -1.6916069355
 H          3.2298845589       -2.1383996942       -2.3472348761
 H          3.3357069463       -2.9956872233       -0.7978697450
 O          2.1987509034       -0.1326692288       -1.6487256565
 C          1.4408599091        0.9803774149       -1.3140861844
 O          1.0447451766        1.6348458800       -2.2950878819
 O          1.3514480510        0.4981680042        2.2731202844
 C          0.4067472898        2.4620575471        0.4503793086
 C         -1.0409732818        2.1979484180        0.1223399659
 C         -1.7093081006        2.7685822882       -0.9521387948
 C         -3.0199112252        2.4148664205       -1.2273747705
 C         -3.6890027089        1.4943630123       -0.4407883038
 C         -3.0274610246        0.9220256940        0.6379812307
 C         -1.7167113677        1.2743068366        0.9117317299
 H         -1.1960886693        0.8175691537        1.7437653788
 N         -3.6928671031       -0.0413845158        1.4327301325
 S         -4.0473792525       -1.4660255307        0.6240423616
 O         -5.1330026457       -1.2256181482       -0.2912447786
 O         -4.2855872249       -2.4532885574        1.6521029172
 C         -2.5583896261       -1.8501106937       -0.2803478422
 C         -2.4452787038       -1.4557581232       -1.5978726670
 C         -1.2620831979       -1.7091881623       -2.2723699278
 C         -0.2187041532       -2.3464285698       -1.6201802417
 C         -0.3430265421       -2.7254473298       -0.2925644116
 C         -1.5223258542       -2.4714447394        0.3876435974
 H         -1.6587481549       -2.7594891321        1.4179604499
 H          0.4756081350       -3.2103658923        0.2146246815
 H          0.6985884938       -2.5453581689       -2.1507316191
 H         -1.1523599485       -1.4028079760       -3.3002293297
 H         -3.2816311571       -0.9686214726       -2.0716619853
 H         -3.1831698634       -0.2628240878        2.2774791481
 H         -4.7035381581        1.1970929555       -0.6518032734
 H         -3.5267767884        2.8618485519       -2.0690926197
 H         -1.1979106832        3.4749305317       -1.5846588362
 H          0.4965116096        2.5102344372        1.5447866144
 C          0.9532669978        3.7439685472       -0.1375571759
 C          0.5406225387        5.0552030355        0.4593495789
 C          1.9373810787        4.5492332130        0.6548743107
 H          2.7428595244        5.0399106489        0.1293622676
 H          2.2155707801        4.1815562971        1.6319528469
 H          0.3859775563        5.8965066053       -0.1985798485
 H         -0.1313830469        5.0285163203        1.3039010161
 H          1.1020380139        3.6970417825       -1.2088896770
