  62
        -98.92989654
 C         -2.2353418301       -0.1962299698        0.4328492099
 C         -3.3471685300       -0.7814184001       -0.2195435901
 C         -4.4918070201        0.1113819097       -0.4967438303
 C         -4.4278643303        1.4088111297       -0.1487108805
 C         -5.4095204605        2.5453603996       -0.3462897407
 C         -6.8634414605        2.2672101793       -0.7201752807
 C         -7.6802030304        1.5619829693        0.3619547494
 H         -8.6653242803        1.3323787091       -0.0499773306
 H         -7.8214023805        2.2530491794        1.1968349293
 C         -7.0660516102        0.2818234395        0.9229366896
 H         -7.7508331102       -0.1141644105        1.6778916896
 H         -6.1290360803        0.5171364997        1.4321556096
 C         -6.8114302000       -0.8240555406       -0.0994936302
 H         -7.7325733000       -1.0403077608       -0.6439022702
 H         -6.5304249799       -1.7242453305        0.4536870899
 C         -5.6936522000       -0.5407061406       -1.1181860102
 H         -6.0597716101        0.0486536492       -1.9551912903
 H         -5.3498150699       -1.4997514806       -1.5161979100
 H         -6.9134961403        1.7157906291       -1.6543320106
 H         -7.3279650606        3.2402825592       -0.9017110108
 H         -4.9698888506        3.1860974095       -1.1187732007
 H         -5.3832326806        3.1233185097        0.5830047392
 O         -3.3198888004        1.9351986000        0.4545079095
 C         -2.2205748803        1.1587375402        0.7671336897
 O         -1.3044577705        1.7817394404        1.3438409696
 O         -3.4050500398       -1.9863565302       -0.5719643399
 C         -0.9904179500       -0.9758511996        0.8209054501
 C          0.0149259400       -1.0047429496       -0.3022149499
 C         -0.3581587799       -1.3367652799       -1.6008219499
 C          0.5832489502       -1.3604499999       -2.6133110198
 C          1.9077001801       -1.0580511796       -2.3521600798
 C          2.2938651500       -0.7352244094       -1.0557670199
 C          1.3450347400       -0.7065520894       -0.0428567799
 H          1.6501588099       -0.4299054092        0.9550835601
 N          3.6455965000       -0.4856612491       -0.7646165098
 S          4.0751722998        0.5911303211        0.4603486900
 O          3.8206820798       -0.0300817087        1.7355628501
 O          3.4630279296        1.8814506810        0.2340197698
 C          5.8335665998        0.6772499313        0.1788245301
 C          6.6149452399       -0.3883299985        0.5850053203
 C          7.9795426299       -0.3466544883        0.3484720103
 C          8.5374422898        0.7533813217       -0.2863891498
 C          7.7411833296        1.8160821915       -0.6856602900
 C          6.3748356696        1.7800104113       -0.4536897601
 H          5.7173935095        2.5853249812       -0.7398553602
 H          8.1780089795        2.6713028515       -1.1756436401
 H          9.6001000398        0.7839170818       -0.4683216398
 H          8.6022494100       -1.1696724382        0.6599162105
 H          6.1385751000       -1.2166247685        1.0828466204
 H          4.1977214300       -0.3224942092       -1.5959862698
 H          2.6398314802       -1.0760389997       -3.1450790798
 H          0.2815937003       -1.6152372101       -3.6181609098
 H         -1.3891501398       -1.5819749301       -1.8044661099
 H         -0.5372713201       -0.4015228894        1.6460928300
 C         -1.3039410698       -2.3663176796        1.3600539003
 C         -0.9620897896       -3.6305349096        0.6368237605
 C         -0.1907011397       -3.2395677793        1.8589933404
 H         -0.3409333797       -3.7972723892        2.7710792405
 H          0.8187468802       -2.8792867392        1.7234066704
 H         -1.6645592695       -4.4470506497        0.7025496806
 H         -0.4737928996       -3.5528545397       -0.3214320795
 H         -2.2236354999       -2.3760435696        1.9363003802
