  62
        -98.93997843
 C         -1.5968215558       -1.5286696135       -0.1690655735
 C         -1.2471432954       -0.2174856271       -0.5850628753
 C         -2.3714926420        0.6986399360       -0.8297929530
 C         -3.6365812823        0.2815297992       -0.6557310808
 C         -4.8792552574        1.1057578398       -0.8538696722
 C         -5.2390696131        1.9780514577        0.3569816990
 C         -4.3317381647        3.1885588597        0.5848579489
 H         -4.2511171032        3.7610447190       -0.3396792217
 H         -4.8282433931        3.8256710236        1.3195327377
 C         -2.9269671296        2.8457071046        1.1032796962
 H         -2.6689759540        3.5121987190        1.9296138076
 H         -2.9214902897        1.8290273564        1.5039992645
 C         -1.8162446352        2.9705939551        0.0597244468
 H         -1.7171759380        4.0157563308       -0.2442425767
 H         -0.8720809081        2.6655165900        0.5218805608
 C         -2.0390635107        2.1139488874       -1.1932494188
 H         -2.8279839134        2.5458389509       -1.8090344919
 H         -1.1097295470        2.1005723148       -1.7677264070
 H         -6.2585017511        2.3406264933        0.2060164279
 H         -5.2387344280        1.3508771939        1.2515735430
 H         -4.7675934986        1.7347964465       -1.7372866975
 H         -5.6968722710        0.4028450459       -1.0271294147
 O         -3.9344740234       -0.9880479882       -0.2713797876
 C         -2.9330575002       -1.9026010938        0.0117067991
 O         -3.3579881377       -3.0076702367        0.4060689700
 O         -0.0725240778        0.1886532089       -0.7621149663
 C         -0.5641044738       -2.5731471141        0.2299330509
 C          0.2921926585       -2.0017536875        1.3326803068
 C         -0.1213918810       -2.1255474792        2.6554146415
 C          0.6201209834       -1.5711112646        3.6820225564
 C          1.7705329366       -0.8547782447        3.4023047405
 C          2.1823805911       -0.7117412960        2.0837897662
 C          1.4615453373       -1.3078769175        1.0585793690
 H          1.7907596697       -1.1991556828        0.0398194780
 N          3.3336643013        0.0365451184        1.7544534040
 S          3.0590169002        1.4442881054        0.8648826878
 O          4.2617778709        2.2320718976        1.0706173295
 O          1.8318079169        2.0909331041        1.2702508582
 C          3.0200239304        0.9420420849       -0.8386682043
 C          2.2209145342        1.6368004063       -1.7208118847
 C          2.2339999058        1.2762221765       -3.0589290374
 C          3.0452067751        0.2378460890       -3.4871384983
 C          3.8518460649       -0.4420285036       -2.5872481315
 C          3.8442215656       -0.0866486660       -1.2483594092
 H          4.4512480926       -0.5963458250       -0.5182074372
 H          4.4827993222       -1.2490780438       -2.9244058273
 H          3.0461950315       -0.0449251779       -4.5283295376
 H          1.6059124067        1.8021430493       -3.7607180440
 H          1.5936568898        2.4268989944       -1.3418386995
 H          3.8970879294        0.2786772107        2.5592989199
 H          2.3416707906       -0.3999349105        4.1985102790
 H          0.2937989461       -1.6843953922        4.7050589738
 H         -1.0372881083       -2.6593036874        2.8701816149
 H         -1.1574253873       -3.3962592766        0.6583514249
 C          0.2540732569       -3.1837296490       -0.8975728204
 C         -0.3945946630       -3.5291058572       -2.2049476973
 C          0.6584016949       -2.4654164443       -2.1478329255
 H          1.6318752477       -2.6885839314       -2.5596545160
 H          0.3655630248       -1.4357604022       -2.2664064565
 H         -0.1559344942       -4.4741767228       -2.6690129772
 H         -1.4219779612       -3.2216999460       -2.3396752692
 H          0.9679858542       -3.9048951089       -0.5098553390
