  62
        -98.94133293
 C         -1.3100891092       -1.7133142106        0.0253944214
 C         -2.1431398792       -1.1462834805        1.0164309314
 C         -3.0096812299       -0.0365671912        0.5894328310
 C         -2.9468250106        0.4005802480       -0.6825514693
 C         -3.7701143714        1.4487884572       -1.3993283996
 C         -4.4764063818        2.5564475772       -0.6196815000
 C         -3.5565030820        3.4877353682        0.1667367991
 H         -2.9438088326        4.0548477781       -0.5373663814
 H         -4.1841708523        4.1981806282        0.7095050989
 C         -2.6161137213        2.8035213093        1.1564445492
 H         -1.8695631212        2.2208019794        0.6124186493
 H         -2.0772687316        3.5841942699        1.7000154086
 C         -3.2949021605        1.9044033395        2.1897586100
 H         -2.5437808001        1.6470669604        2.9415307499
 H         -4.0916247406        2.4562075094        2.6920621799
 C         -3.8750833299        0.5836598189        1.6472045809
 H         -4.8898613401        0.7161359381        1.2785809112
 H         -3.9175921593       -0.1320122006        2.4732846314
 H         -5.0077693224        3.1626297365       -1.3585650502
 H         -5.2296825313        2.1344648472        0.0393399305
 H         -4.5271250913        0.8984917264       -1.9696392090
 H         -3.0970768519        1.8988509171       -2.1338316701
 O         -2.0941773006       -0.1503545720       -1.5924117992
 C         -1.2548637299       -1.2047265014       -1.2710513189
 O         -0.5277800700       -1.5842604815       -2.2068538789
 O         -2.1686446086       -1.5548112898        2.2098728616
 C         -0.4094867884       -2.8781387899        0.3957620918
 C          1.0325584113       -2.4654748092        0.2381877211
 C          1.9515284814       -3.1520235892       -0.5429483289
 C          3.2514353911       -2.6896229085       -0.6666995196
 C          3.6650539707       -1.5457098479       -0.0098574704
 C          2.7540526806       -0.8548706679        0.7805822295
 C          1.4531120809       -1.3170967986        0.9003739702
 H          0.7436483408       -0.7761827086        1.5149079602
 N          3.1687413502        0.3119282227        1.4596007087
 S          3.6086603391        1.6357638224        0.5365067378
 O          4.6622015990        1.2457280725       -0.3641749124
 O          3.9268970989        2.6793883131        1.4836850371
 C          2.1529045285        2.0954531010       -0.3877599220
 C          1.4630171080        3.2345344809       -0.0223823924
 C          0.3297053576        3.5897465198       -0.7349691523
 C         -0.0996484423        2.7946750190       -1.7865328616
 C          0.5939715382        1.6455069992       -2.1323748812
 C          1.7349333086        1.2911879802       -1.4296382214
 H          2.2945150890        0.4051706004       -1.6834454211
 H          0.2468897283        1.0093831785       -2.9314972007
 H         -0.9809196827        3.0714297782       -2.3437919715
 H         -0.2149441828        4.4811139197       -0.4678755926
 H          1.8343334380        3.8220842616        0.8017702071
 H          2.5146340702        0.6111094827        2.1695717887
 H          4.6680711104       -1.1649926774       -0.1112768609
 H          3.9532575712       -3.2298178985       -1.2839102795
 H          1.6500413817       -4.0449022696       -1.0649373582
 H         -0.5961842180       -3.0647214794        1.4636170920
 C         -0.7844355080       -4.1169244806       -0.3884241274
 C         -0.4729669271       -5.4758188901        0.1614652633
 C         -1.8899202774       -4.9902192709        0.1215118635
 H         -2.5685336274       -5.4326327017       -0.5922314060
 H         -2.3609239072       -4.7044476206        1.0508131135
 H         -0.1800151869       -6.2560891003       -0.5245701163
 H          0.0190132833       -5.5255119193        1.1210563632
 H         -0.7195944085       -3.9696769912       -1.4604216075
