  62
        -98.94945807
 C         -1.0637090200       -1.7194055406        0.1142642810
 C         -1.6889229600       -0.9393922704        1.1154546209
 C         -2.8505519602       -0.1533141307        0.6858094509
 C         -3.2452763203       -0.1966011711       -0.5996910591
 C         -4.4121846505        0.5459294686       -1.1918228191
 C         -4.0941849307        1.9998742786       -1.5674284695
 C         -3.9812529707        2.9671594389       -0.3883035698
 H         -4.0009077009        3.9773350388       -0.8022996300
 H         -4.8553616306        2.8603271289        0.2556678303
 C         -2.7009301406        2.8053147893        0.4428431601
 H         -1.9534852706        2.2649945492       -0.1443735298
 H         -2.2764855307        3.7914598394        0.6491505598
 C         -2.9027667204        2.1103969696        1.7897941203
 H         -1.9285223003        2.0169391798        2.2758625202
 H         -3.5351656104        2.7333717496        2.4269104702
 C         -3.5316807502        0.7138841995        1.7022987807
 H         -4.5940404802        0.7969726692        1.4731297908
 H         -3.4205891400        0.2291657097        2.6757746408
 H         -3.1621978308        2.0191195886       -2.1385364896
 H         -4.8950433308        2.3504576183       -2.2230916695
 H         -5.2548650104        0.5228173887       -0.4996835090
 H         -4.6928175205        0.0085058984       -2.1003099890
 O         -2.6219679103       -0.9634579512       -1.5329053390
 C         -1.5112402101       -1.7296768510       -1.2074044589
 O         -1.0305734702       -2.3676280011       -2.1637329888
 O         -1.2956959699       -0.9024097301        2.3130239309
 C          0.1631941202       -2.5302684303        0.4784171211
 C          1.3846590000       -2.0777808703       -0.2876007792
 C          2.4813355901       -2.9084920802       -0.4930204991
 C          3.5960124400       -2.4427978902       -1.1678263193
 C          3.6541689897       -1.1426380803       -1.6376699496
 C          2.5635829796       -0.3044937004       -1.4382210197
 C          1.4477648198       -0.7785343504       -0.7669752595
 H          0.5976619097       -0.1267736705       -0.6511369995
 N          2.5645701494        1.0152421294       -1.9078759301
 S          1.6864585593        2.2041433095       -1.1331596202
 O          0.2750260293        2.0299230192       -1.3684048700
 O          2.2600273191        3.4387872295       -1.6252532006
 C          2.0758287695        2.0083305300        0.5961096698
 C          1.1271242897        1.5370778001        1.4786048700
 C          1.4802211399        1.3314729004        2.8026331700
 C          2.7717150299        1.6079485007        3.2221220798
 C          3.7121136397        2.0974892806        2.3273989396
 C          3.3654367395        2.2951469503        1.0012135995
 H          4.0665853694        2.6793986402        0.2784446594
 H          4.7139539897        2.3183966809        2.6587970094
 H          3.0446263500        1.4422999310        4.2523676898
 H          0.7412596000        0.9389323505        3.4836702102
 H          0.1291696597        1.3268748998        1.1280467401
 H          3.4426828093        1.3507526095       -2.2730391602
 H          4.5246193096       -0.7827144803       -2.1639490898
 H          4.4364996500       -3.1010308502       -1.3267834792
 H          2.4575665703       -3.9232989301       -0.1304643988
 H          0.3420739003       -2.3229839900        1.5453511310
 C         -0.1079489196       -4.0137382104        0.3139373815
 C          0.4625301306       -5.0080344901        1.2796859117
 C         -1.0027988294       -4.6974653503        1.3029821818
 H         -1.6987204694       -5.4398888305        0.9422859520
 H         -1.3865998494       -4.0990885101        2.1165221117
 H          0.7741329607       -5.9707454301        0.9031434119
 H          1.0676274606       -4.6311054998        2.0904638715
 H         -0.2007887097       -4.3035838007       -0.7266938984
