  62
        -98.93431998
 C          2.5145311227       -0.1667967505        0.7149732106
 C          2.4419215576       -0.8191630832       -0.5403289779
 C          1.9295863845       -2.1943379016       -0.5124014585
 C          1.5457218974       -2.7434874340        0.6534646585
 C          0.9575996208       -4.1164120487        0.8337618208
 C         -0.5491087811       -4.1730170742        0.5433445820
 C         -0.9295329872       -4.1287038914       -0.9377032215
 H         -0.3355057084       -4.8590124027       -1.4887974822
 H         -1.9743924068       -4.4381919645       -1.0061385683
 C         -0.7851909160       -2.7444486498       -1.5856825408
 H         -0.7551220864       -1.9795925386       -0.8058280681
 H         -1.6655010890       -2.5406406245       -2.2010121226
 C          0.4352099210       -2.5864077558       -2.4929272365
 H          0.4720331470       -1.5492475204       -2.8360064474
 H          0.3258524141       -3.2305459573       -3.3690873433
 C          1.7758733209       -2.9079090176       -1.8221214997
 H          1.8783156336       -3.9837100709       -1.6807348264
 H          2.5766687831       -2.5617784105       -2.4806835400
 H         -0.9289110157       -5.1051264375        0.9689413811
 H         -1.0332627202       -3.3426459146        1.0642127856
 H          1.4826818240       -4.8318299164        0.1998666873
 H          1.1198376330       -4.3906467031        1.8784337067
 O          1.6611105109       -2.0937701883        1.8433732823
 C          2.1121914192       -0.7862716449        1.8963441161
 O          2.1222322322       -0.2906270779        3.0451875797
 O          2.7735147806       -0.2849385981       -1.6286275382
 C          2.8997344294        1.3078247375        0.7851223276
 C          1.9700779403        2.0383631788       -0.1596912067
 C          2.2847428162        2.9174891322       -1.1854845456
 C          1.2833605051        3.4595951004       -1.9782182666
 C         -0.0436727518        3.1304247203       -1.7911879825
 C         -0.3758124255        2.2468079479       -0.7673540438
 C          0.6209335343        1.7511295972        0.0498975767
 H          0.3471215748        1.0921370895        0.8613605953
 N         -1.7030798775        1.8196198557       -0.5949750241
 S         -2.1905363544        0.9371914011        0.7476531045
 O         -2.0777789815        1.7388034027        1.9488902781
 O         -1.5182949663       -0.3366583964        0.7554911684
 C         -3.9075574998        0.7016808517        0.3330050188
 C         -4.8620277082        1.5585758194        0.8470162317
 C         -6.1891865961        1.3747191142        0.4912993369
 C         -6.5367086644        0.3442899924       -0.3692019952
 C         -5.5676309115       -0.5093588488       -0.8754318298
 C         -4.2394007111       -0.3310627510       -0.5231475826
 H         -3.4513423144       -0.9729834348       -0.8819706190
 H         -5.8414181220       -1.3121860475       -1.5407536348
 H         -7.5699303894        0.2029189472       -0.6443080601
 H         -6.9451960507        2.0338658702        0.8864502630
 H         -4.5461080422        2.3385577197        1.5210667939
 H         -2.3972714028        2.4892745417       -0.8930133935
 H         -0.8125253375        3.5351921921       -2.4305431572
 H          1.5527544067        4.1425277899       -2.7699120208
 H          3.3031270806        3.1832876869       -1.4022839822
 H          2.6224921137        1.6295818399        1.8046103140
 C          4.4124106465        1.4339644189        0.7048611969
 C          5.2119037052        1.5388513462       -0.5551776123
 C          5.1659289484        2.6945606779        0.4009359604
 H          6.0506653153        2.8979069264        0.9864630009
 H          4.6104983531        3.5803263322        0.1407373676
 H          6.1248011760        0.9639729843       -0.6157225726
 H          4.6745704928        1.5830468727       -1.4878464129
 H          4.8478329071        0.8100737084        1.4838252159
