  62
        -98.94180593
 C         -0.6659818941       -1.3932949126        0.0272147519
 C         -1.5308369284       -0.9800795781        1.0640717090
 C         -2.4954550006        0.0859540347        0.7359515377
 C         -2.4971145597        0.6127085343       -0.5030145098
 C         -3.3907989686        1.6487416250       -1.1534534868
 C         -4.5954884507        2.2170171889       -0.4091388878
 C         -5.7671110212        1.2436911499       -0.2670140431
 H         -6.5065897695        1.6865523850        0.4033975355
 H         -6.2359951392        1.1259107943       -1.2471559228
 C         -5.4103117360       -0.1521588120        0.2378340904
 H         -4.7001988446       -0.6213906978       -0.4456839252
 H         -6.3209288165       -0.7572314453        0.2232739942
 C         -4.8414587238       -0.2065505015        1.6532783174
 H         -5.5387778480        0.2629830095        2.3502667075
 H         -4.7464313930       -1.2591426744        1.9342948055
 C         -3.4614880535        0.4461078164        1.8287995316
 H         -3.5466048126        1.5252756925        1.9295154835
 H         -3.0248502165        0.0660045054        2.7576337118
 H         -4.9503579192        3.0719562832       -0.9908386993
 H         -4.2906364051        2.6016056880        0.5596772272
 H         -2.7293930548        2.4731867233       -1.4322269936
 H         -3.7321558349        1.2001047409       -2.0922323648
 O         -1.5789537626        0.2405720053       -1.4433799203
 C         -0.6551591786       -0.7644599140       -1.2158753479
 O          0.0972917905       -0.9997620168       -2.1787593658
 H          1.5160479400       -0.3515653891        1.0832479463
 C          2.1718143665       -0.9675600386        0.4843330014
 C          1.7010164170       -2.1686968146       -0.0316799884
 C          2.5671462435       -2.9576327063       -0.7779278791
 C          3.8650189339       -2.5403292771       -1.0157661794
 C          4.3240633714       -1.3347319560       -0.5198265010
 C          3.4677672450       -0.5439144812        0.2400195287
 N          3.9124887896        0.6768544665        0.7646568915
 S          2.8853373657        1.9023859381        1.2028881786
 O          3.7557403091        3.0510301716        1.3508658766
 O          2.1365104560        1.5394402629        2.3815190727
 C          1.7629097839        2.2268666413       -0.1475396291
 C          0.6548491240        2.9920172455        0.1586236293
 C         -0.2019381905        3.3772117819       -0.8581022457
 C          0.0523949808        2.9766402550       -2.1608419265
 C          1.1605840068        2.1985502292       -2.4509126383
 C          2.0340142629        1.8284127807       -1.4400520378
 H          2.8985800722        1.2228809971       -1.6574068232
 H          1.3480778484        1.8708140427       -3.4604007273
 H         -0.6171827865        3.2674660616       -2.9551785447
 H         -1.0595224468        3.9895480387       -0.6269955691
 H          0.4861046466        3.2671971984        1.1878962244
 H          4.8010232428        1.0119039586        0.4250735809
 H          5.3329853618       -1.0043500550       -0.7132414371
 H          4.5262578962       -3.1592774536       -1.6027517364
 H          2.2252217133       -3.8969421826       -1.1796175079
 C          0.2759683401       -2.5580400043        0.2654615768
 H          0.2002433322       -2.7829379343        1.3402241128
 C         -0.1990002877       -3.7645741866       -0.5195815486
 C          0.0538325908       -5.1513828197       -0.0104922330
 C         -1.3310888733       -4.5806207515        0.0257367379
 H         -2.0688196304       -4.9659144690       -0.6621337412
 H         -1.7393340628       -4.2825733585        0.9805704708
 H          0.2648081029       -5.9332880271       -0.7244134203
 H          0.5840476390       -5.2516735077        0.9244762071
 H         -0.1749020634       -3.5976299344       -1.5909960911
 O         -1.5131287827       -1.4915689724        2.2174435831
