  62
        -98.94525622
 C         -0.9636850679       -1.5829401525       -0.4369756394
 C         -2.1702545948       -1.7058601126        0.3013308561
 C         -3.2472480297       -0.7767225343       -0.0520886493
 C         -3.0585731363        0.1138046126       -1.0425818371
 C         -4.0907175909        1.0687382770       -1.5804203461
 C         -4.2267345748        2.3792849065       -0.7948168859
 C         -4.8656692608        2.2486384758        0.5878832693
 H         -5.0754531002        3.2601974711        0.9414148935
 H         -5.8222430256        1.7330433058        0.4973113778
 C         -3.9882198490        1.5317427670        1.6238144562
 H         -2.9565294767        1.4934717076        1.2671026147
 H         -3.9866378828        2.0995390772        2.5566845164
 C         -4.4442553563        0.1116318892        1.9583614694
 H         -5.4284317118        0.1424464472        2.4312547916
 H         -3.7390172601       -0.3161515983        2.6753515211
 C         -4.5146264425       -0.8267419970        0.7463351359
 H         -4.6395213412       -1.8499604553        1.1088123139
 H         -5.3700740657       -0.5709444692        0.1211670228
 H         -3.2375313553        2.8282726497       -0.6980614845
 H         -4.8431348089        3.0537876210       -1.3938900093
 H         -3.7857586708        1.3101788812       -2.6011236288
 H         -5.0582842876        0.5666483098       -1.6199339092
 O         -1.8842422929        0.2121431676       -1.7177292604
 C         -0.8060604897       -0.6157648301       -1.4296322865
 O          0.1947570955       -0.3854861961       -2.1348702748
 O         -2.3454451513       -2.5716291814        1.1997121013
 C          0.1424629477       -2.5699040427       -0.1027445045
 C          1.1720559074       -1.9502050471        0.8115155051
 C          1.2075530768       -2.3094056618        2.1550870368
 C          2.1541633803       -1.7693689783        3.0061726007
 C          3.0797460829       -0.8575662550        2.5334249068
 C          3.0459605734       -0.4824180985        1.1942672098
 C          2.0948399844       -1.0252063826        0.3410941252
 H          2.0761264644       -0.7174137402       -0.6924354911
 N          3.9790677444        0.4376915002        0.6980714128
 S          3.5766064333        1.5078807606       -0.5161997060
 O          3.6258381368        0.8571949495       -1.7995758088
 O          4.5168209646        2.5981718551       -0.3399922718
 C          1.9373517701        2.1071597764       -0.1473323739
 C          1.0588515682        2.3419589071       -1.1835891503
 C         -0.1836566869        2.8867423286       -0.8983701260
 C         -0.5234876723        3.1831328817        0.4116722010
 C          0.3690340014        2.9363517322        1.4433228586
 C          1.6144370734        2.4000831627        1.1633320193
 H          2.3288524658        2.2123135852        1.9480385113
 H          0.0981845562        3.1637120759        2.4618704066
 H         -1.4874741536        3.6140691598        0.6352386434
 H         -0.8784333020        3.0677733240       -1.7035331895
 H          1.3500287335        2.0769690119       -2.1869139573
 H          4.5815488327        0.8591724324        1.3894464656
 H          3.8259894696       -0.4385749343        3.1910630167
 H          2.1722541870       -2.0604189691        4.0452341429
 H          0.4774658642       -3.0125605243        2.5284430641
 H         -0.3584168971       -3.3687415302        0.4619296102
 C          0.7889899975       -3.1897647136       -1.3252635094
 C          1.5050899539       -4.4977326939       -1.1782410074
 C          0.1996365985       -4.4357463884       -1.9118937678
 H          0.2022510689       -4.5502381465       -2.9855363614
 H         -0.6750883019       -4.8496274658       -1.4313718323
 H          2.4089037040       -4.6554722223       -1.7465920476
 H          1.5146201542       -4.9553257078       -0.2004356871
 H          1.2023488060       -2.4658339910       -2.0155116234
