  62
        -98.94039822
 C         -2.0674136826       -1.0023293740        0.0278619471
 C         -2.3763647273        0.3729262090        0.1756035912
 C         -3.7315759569        0.6705178997        0.6644036323
 C         -4.5674055024       -0.3301092658        0.9917599490
 C         -5.9686691246       -0.1816315319        1.5189671632
 C         -7.0275843745        0.0160387114        0.4256493023
 C         -7.0156450608        1.3870728881       -0.2516628249
 H         -7.9360139233        1.4646188686       -0.8339564783
 H         -7.0457184101        2.1672641661        0.5096123643
 C         -5.8202054413        1.6227416279       -1.1854430928
 H         -5.3558568437        0.6650116263       -1.4318421896
 H         -6.1714307171        2.0577812553       -2.1238409684
 C         -4.7520119885        2.5610491429       -0.6233412372
 H         -3.9388719167        2.6306645020       -1.3506899959
 H         -5.1730831283        3.5607539009       -0.4954187742
 C         -4.1539780753        2.1077828867        0.7151397030
 H         -4.8709289274        2.2666766377        1.5203986513
 H         -3.2632540787        2.7087726099        0.9151087660
 H         -6.9012651189       -0.7642182027       -0.3286017081
 H         -8.0059409383       -0.1269278098        0.8901473540
 H         -6.0100242792        0.6504902220        2.2223733998
 H         -6.1973669828       -1.1039146180        2.0574816018
 O         -4.2096492987       -1.6383013903        0.8962526607
 C         -2.9673048516       -2.0037598075        0.4045653029
 O         -2.7801264463       -3.2361081422        0.3612705597
 O         -1.5828182394        1.3131203032       -0.0840975047
 C         -0.7194448802       -1.4754588968       -0.4909274642
 C          0.3910122133       -0.7326168246        0.2088499998
 C          0.6115107959       -0.9805367073        1.5606793409
 C          1.6070817638       -0.3145039269        2.2497580948
 C          2.4074596133        0.6113613020        1.6042630228
 C          2.1964933460        0.8642412035        0.2556320495
 C          1.2016470119        0.1865856242       -0.4375062778
 H          1.0334151979        0.4123776337       -1.4788341225
 N          3.0084979310        1.8009246111       -0.4043832554
 S          4.6574142109        1.7380039421       -0.1430574266
 O          4.9837973856        2.3867046553        1.1024717606
 O          5.2528656024        2.3135648573       -1.3287186926
 C          5.0374744113       -0.0025894099       -0.0354437039
 C          5.5418586356       -0.5298273239        1.1354767967
 C          5.7927595996       -1.8910967864        1.2045343495
 C          5.5315324955       -2.6978927142        0.1083163520
 C          5.0278758059       -2.1526027232       -1.0630196492
 C          4.7771068756       -0.7925108306       -1.1380324545
 H          4.3930837844       -0.3358249775       -2.0360201935
 H          4.8274582021       -2.7825627132       -1.9148523543
 H          5.7217440425       -3.7580710172        0.1653166527
 H          6.1864690440       -2.3175227973        2.1130585388
 H          5.7284907387        0.1324973548        1.9650340439
 H          2.7847218401        1.9291868528       -1.3797110046
 H          3.1775457197        1.1539820199        2.1282526216
 H          1.7602790107       -0.5134436569        3.2996266426
 H         -0.0198292751       -1.6976193228        2.0679815946
 H         -0.6574237998       -2.5330939255       -0.1876818323
 C         -0.5939536969       -1.4544721109       -2.0073645172
 C         -1.7795583234       -1.7498777228       -2.8755621412
 C         -1.1887222347       -0.3736600770       -2.8574217439
 H         -0.6376549329       -0.0436882709       -3.7265555546
 H         -1.7316587649        0.4155235600       -2.3621364344
 H         -1.6358691148       -2.3626456079       -3.7527139105
 H         -2.7293681602       -1.9070934540       -2.3850777389
 H          0.3556593331       -1.8653922128       -2.3368877528
