  62
        -98.93851660
 C         -1.5076652582       -0.6758301649       -0.9715575622
 C         -1.5544733170       -1.4933539981        0.1838846918
 C         -0.6273037317       -2.6361594056        0.1943057631
 C          0.2111098814       -2.8192167915       -0.8406280311
 C          1.1995809045       -3.9432424649       -0.9623878719
 C          2.5767482388       -3.5702910028       -0.3988170777
 C          2.5330952760       -2.9575481695        1.0010944974
 H          3.5663899360       -2.7898739413        1.3156547897
 H          2.0537318377       -1.9766100928        0.9635389846
 C          1.8128512932       -3.8137533128        2.0515346923
 H          1.7472230260       -4.8486924399        1.7119646148
 H          2.4060450195       -3.8085430411        2.9685396247
 C          0.4177594797       -3.3049034393        2.4212703564
 H          0.4673081120       -2.2298267632        2.6159054011
 H          0.1089980847       -3.7959025388        3.3485157248
 C         -0.6814420036       -3.5559763172        1.3806856592
 H         -0.6568066637       -4.6012682983        1.0631483169
 H         -1.6451856051       -3.3648354405        1.8619548387
 H          3.1937813615       -4.4711615994       -0.3810093129
 H          3.0489723599       -2.8517109495       -1.0731766007
 H          0.8087736541       -4.8138288961       -0.4387143871
 H          1.3068103647       -4.1870731226       -2.0212296755
 O          0.2619250573       -1.9814167449       -1.9090445950
 C         -0.5877293784       -0.8895902029       -1.9960712694
 O         -0.4305524242       -0.1968642733       -3.0224717556
 H         -0.1758665021        1.4671285132       -0.3422697961
 C         -0.9387162514        1.7652573266        0.3634238461
 C         -2.2571592966        1.3769177201        0.1315171774
 C         -3.2162019344        1.7848180183        1.0483681936
 C         -2.8555179125        2.5304741826        2.1600294226
 C         -1.5385398382        2.8665066197        2.4048749565
 C         -0.5670244036        2.4666124037        1.4947740147
 N          0.7933418888        2.7602880291        1.6877303108
 S          1.9070064430        1.5595050041        1.3238055693
 O          1.3658547540        0.2407210271        1.5487498687
 O          3.0777548662        1.9048042332        2.1051951513
 C          2.2840063326        1.8027870465       -0.3978141187
 C          2.4112155134        0.7040149459       -1.2229539003
 C          2.7268629972        0.8970235625       -2.5579076304
 C          2.9142903874        2.1825210558       -3.0405068516
 C          2.7921919037        3.2767713641       -2.1971833132
 C          2.4761521551        3.0892427816       -0.8614492505
 H          2.3677179876        3.9141482768       -0.1772263130
 H          2.9378450487        4.2746229348       -2.5786669542
 H          3.1527699870        2.3296123531       -4.0820221876
 H          2.8058244176        0.0450143870       -3.2139084902
 H          2.2391519004       -0.2795137278       -0.8138640372
 H          1.0090253627        3.2147068664        2.5636301566
 H         -1.2607808566        3.4189813201        3.2896147195
 H         -3.6187490254        2.8330527172        2.8612731616
 H         -4.2493398026        1.5121339617        0.9355371646
 C         -2.4314521780        0.5312042223       -1.1079110809
 H         -2.0122944215        1.1173435082       -1.9434011310
 C         -3.7935021464        0.0527948110       -1.5856561004
 C         -4.8948162840       -0.4548289187       -0.7091652695
 C         -5.0756916910        0.8222695127       -1.4766726096
 H         -5.7398903981        0.8052301060       -2.3283549627
 H         -5.0728805306        1.7630793533       -0.9518593476
 H         -5.4348448363       -1.3300103454       -1.0415370065
 H         -4.7410649117       -0.4322801051        0.3571554371
 H         -3.6564517364       -0.4903293017       -2.5190625111
 O         -2.3387068567       -1.2985337413        1.1466382426
