  62
        -98.93942345
 C          2.4095433813        0.9260761174       -0.6752103849
 C          3.6496966167        0.9364949730        0.0169819800
 C          4.5243369906       -0.2201176177       -0.1970077275
 C          4.1352430479       -1.2028830777       -1.0289771926
 C          4.9230051197       -2.4376261673       -1.3730860036
 C          4.7771593832       -3.5759394304       -0.3539163997
 C          5.4937457742       -3.3521963527        0.9783398368
 H          6.5338167799       -3.0842682273        0.7899387478
 H          5.4941517143       -4.3078848921        1.5062737029
 C          4.8420522898       -2.2927030365        1.8781426899
 H          4.7731425335       -2.6742639832        2.8993855482
 H          3.8205663619       -2.1034564035        1.5394709544
 C          5.5954674372       -0.9639841334        1.9417683006
 H          6.5716980130       -1.1178878361        2.4069073690
 H          5.0255708824       -0.2777214278        2.5734593954
 C          5.8045551245       -0.2906086457        0.5791376489
 H          6.5661464672       -0.8225504765        0.0093223460
 H          6.1459123080        0.7330924838        0.7511796383
 H          5.1852430455       -4.4788269582       -0.8139962155
 H          3.7138670725       -3.7472188217       -0.1709408871
 H          5.9766607683       -2.1800453939       -1.4841585397
 H          4.5466873593       -2.7877447002       -2.3366413043
 O          2.9489958602       -1.1692983299       -1.6885397343
 C          2.0497023196       -0.1258471315       -1.5174475904
 O          1.0000980247       -0.2679483059       -2.1763968007
 O          4.0119099643        1.8774930251        0.7720748695
 C          1.4871223720        2.1118787977       -0.4443086742
 C          0.3798928597        1.7404418831        0.5138485381
 C          0.4098063956        2.1897598683        1.8292677849
 C         -0.5978886334        1.8483502558        2.7141263856
 C         -1.6506226402        1.0476909213        2.3093227332
 C         -1.6853534697        0.5862209528        0.9995024808
 C         -0.6808363136        0.9421321465        0.1096174486
 H         -0.7024665395        0.5656669305       -0.9021745457
 N         -2.7303136242       -0.2629537938        0.5806914992
 S         -4.3074510194        0.2443140568        0.9103597322
 O         -4.5068875700        1.5981881501        0.4408663193
 O         -4.5755087932        0.0205479385        2.3088773722
 C         -5.2469937883       -0.9023873540       -0.0765118377
 C         -5.6934709561       -0.5154200271       -1.3254669366
 C         -6.4031514214       -1.4243186955       -2.0944697090
 C         -6.6492640279       -2.6982945789       -1.6052760082
 C         -6.1935520326       -3.0721296179       -0.3496680466
 C         -5.4846919789       -2.1678930477        0.4248346234
 H         -5.1182949078       -2.4109649623        1.4084700073
 H         -6.3884258283       -4.0632153573        0.0271395372
 H         -7.2019484419       -3.4033807614       -2.2058708389
 H         -6.7607083669       -1.1358477634       -3.0698604596
 H         -5.4863563190        0.4877685767       -1.6624679841
 H         -2.6386170476       -0.4958349341       -0.3997553385
 H         -2.4452341712        0.7794026590        2.9864230670
 H         -0.5636839290        2.2081735947        3.7315983966
 H          1.2371151697        2.8029555653        2.1570493720
 H          2.1140284650        2.8654185609        0.0511721603
 C          0.9485889943        2.7091714875       -1.7290756986
 C          0.3881176828        4.0984644214       -1.7026416997
 C          1.6948839677        3.8299609173       -2.3854643932
 H          1.7310508630        3.8618448422       -3.4640455331
 H          2.6002527205        4.1754906566       -1.9081717742
 H         -0.4767158762        4.3173243544       -2.3100374564
 H          0.4062266044        4.6253503363       -0.7604462907
 H          0.4733026208        1.9865416076       -2.3792545127
