  62
        -98.94098067
 C          1.1156560558        1.3211863351        0.6074551415
 C          1.6319697096        0.8039785502       -0.6026809455
 C          2.4924058818       -0.3914201626       -0.4926004714
 C          2.6630588565       -0.9751048582        0.7076826940
 C          3.4458561457       -2.2026484012        1.1260525414
 C          4.3876760899       -2.8957517726        0.1455562795
 C          5.6573552634       -2.1059372765       -0.1757672940
 H          6.3048650250       -2.1221292167        0.7045913923
 H          6.1856936117       -2.6148731725       -0.9847081445
 C          5.4460207898       -0.6436420872       -0.5604921382
 H          4.9652790004       -0.1125704177        0.2633963070
 H          6.4305282028       -0.1901842151       -0.7042933071
 C          4.6399511418       -0.4138648160       -1.8365952451
 H          5.1086881743       -0.9447108290       -2.6676917165
 H          4.6752342395        0.6555687880       -2.0617670193
 C          3.1610876052       -0.8270082608       -1.7654747895
 H          3.0482107303       -1.8963766197       -1.9235648816
 H          2.6316026211       -0.3172450036       -2.5759332910
 H          3.8594206599       -3.1596637398       -0.7658810852
 H          4.6948134357       -3.8341424138        0.6149417087
 H          4.0126233290       -1.9090657993        2.0156452957
 H          2.6984796111       -2.9263035063        1.4681105771
 O          2.0442447308       -0.5019730563        1.8304091488
 C          1.2855442232        0.6507523480        1.8175422266
 O          0.8121136790        0.9678018072        2.9290495233
 O          1.4000963967        1.3095185078       -1.7303062039
 C          0.2817262323        2.5928928108        0.6264734953
 C         -1.0576731301        2.2911575702        0.0008828277
 C         -1.4861881173        2.8116584028       -1.2118477685
 C         -2.7111598785        2.4371619143       -1.7402359634
 C         -3.5328211985        1.5478747663       -1.0718748967
 C         -3.1118756293        1.0247453258        0.1447189796
 C         -1.8852362521        1.3958097539        0.6697223042
 H         -1.5530160453        0.9820620120        1.6140306509
 N         -3.9382321479        0.1032699492        0.8298477673
 S         -4.1104254091       -1.3918218717        0.0959051811
 O         -4.7727416527       -1.2109153655       -1.1698352604
 O         -4.7865110654       -2.2274099741        1.0613258623
 C         -2.4475710943       -1.9832571760       -0.1631611781
 C         -1.9016804657       -2.8607067908        0.7518276905
 C         -0.5995637470       -3.2964772231        0.5679914203
 C          0.1342619541       -2.8373449031       -0.5143837728
 C         -0.4221977625       -1.9429548882       -1.4153782109
 C         -1.7267759659       -1.5109375626       -1.2421884764
 H         -2.1914497197       -0.8238415314       -1.9303699593
 H          0.1566146730       -1.5714518717       -2.2456177345
 H          1.1467633479       -3.1782742213       -0.6584781660
 H         -0.1623488451       -3.9901844246        1.2684300058
 H         -2.5092736555       -3.1956655826        1.5774001771
 H         -3.6505129989       -0.0387276929        1.7886913612
 H         -4.4803639081        1.2340304449       -1.4785592534
 H         -3.0300955306        2.8447041251       -2.6875568074
 H         -0.8565261768        3.4993228423       -1.7512178565
 H          0.1088651463        2.8205585827        1.6878681323
 C          1.0159299875        3.7541276780       -0.0065111778
 C          0.5824288707        5.1550535495        0.3001905541
 C          1.8718542043        4.6308212599        0.8553206366
 H          2.7995412574        5.0051252533        0.4491524170
 H          1.9195897028        4.4023157427        1.9104016817
 H          0.6249125554        5.8931612946       -0.4860722281
 H         -0.2468175515        5.2833661673        0.9795298461
 H          1.3753048310        3.5380541014       -1.0046864473
