  62
        -98.94369355
 C          1.7346421445        0.4635908709       -0.3176718740
 C          2.9474989644        0.9208783373       -0.8849558218
 C          4.1568971313        0.6950779842       -0.0824277657
 C          4.0451452774        0.1080168913        1.1234122741
 C          5.1988260141       -0.2252987703        2.0236399651
 C          5.7221488723       -1.6431231230        1.7543748116
 C          5.9734961030       -1.9378152354        0.2756179746
 H          6.3683781543       -2.9538822725        0.2088390569
 H          5.0197779804       -1.9278810437       -0.2568583861
 C          6.9449640274       -0.9661759111       -0.4089479062
 H          7.6485235352       -1.5419792434       -1.0139768645
 H          7.5268462881       -0.4320992827        0.3431373628
 C          6.2774171084        0.0440906511       -1.3438863308
 H          7.0592907475        0.5294934893       -1.9341489952
 H          5.6199719824       -0.4810399263       -2.0414003641
 C          5.4671251657        1.1522770478       -0.6595227752
 H          6.0782974806        1.6361613127        0.1051712652
 H          5.2154006171        1.8974355490       -1.4200520243
 H          4.9864435674       -2.3598783204        2.1261385727
 H          6.6469110498       -1.7822448722        2.3172777369
 H          5.9940961335        0.5018414988        1.8714337371
 H          4.8560868503       -0.1643035707        3.0578944399
 O          2.8590895999       -0.2950364372        1.6457289532
 C          1.6750251369       -0.1373814493        0.9399322634
 O          0.6647007373       -0.5624711390        1.5295392014
 H         -2.1939022842        0.1653821073       -0.4450651784
 C         -1.8254486579        1.0943772237       -0.0460353160
 C         -0.5207206826        1.4888271931       -0.2920641932
 C         -0.0826288792        2.7059619336        0.2250536256
 C         -0.9255376375        3.4950945428        0.9819103040
 C         -2.2254147527        3.0919893364        1.2346847392
 C         -2.6758345828        1.8840240421        0.7171882341
 N         -3.9732274810        1.4347332911        0.9875997262
 S         -4.8176729841        0.4730425837       -0.0801377672
 O         -4.6113335349        0.8828408063       -1.4498512990
 O         -6.1843493977        0.5289530670        0.3938309234
 C         -4.1799168404       -1.1697201251        0.1725051552
 C         -3.8693970677       -1.5828124489        1.4524242977
 C         -3.3919176911       -2.8696176709        1.6416801148
 C         -3.2393384413       -3.7184695638        0.5562254687
 C         -3.5632546656       -3.2912213891       -0.7221290482
 C         -4.0402229120       -2.0050637707       -0.9181204439
 H         -4.2960602651       -1.6265558835       -1.8953327263
 H         -3.4432324407       -3.9534583778       -1.5649006983
 H         -2.8626401045       -4.7179235860        0.7070225655
 H         -3.1338303006       -3.2037946478        2.6336767063
 H         -3.9906467164       -0.8965255226        2.2737139381
 H         -4.5655002736        2.0744906914        1.4947758367
 H         -2.8831651372        3.7045687339        1.8322234620
 H         -0.5703669046        4.4341028091        1.3793747003
 H          0.9335529972        3.0207453617        0.0295037874
 C          0.4432459024        0.6501432066       -1.0934642302
 H          0.7215812624        1.2166218284       -1.9948135054
 C         -0.1169183783       -0.6919133567       -1.5149197243
 C         -0.9750999300       -0.8010001965       -2.7383216798
 C          0.4208045317       -1.3453791258       -2.7513368032
 H          0.5570768436       -2.4162710145       -2.7511071509
 H          1.1754707578       -0.8088124374       -3.3078186593
 H         -1.7979042914       -1.4992093243       -2.7276417854
 H         -1.1773216178        0.1045730733       -3.2902597925
 H         -0.3467269056       -1.3321533070       -0.6701507644
 O          3.0144317548        1.4951907612       -2.0056307816
