  62
        -98.94567301
 C          2.5011434426        1.1503742947       -0.0213897254
 C          3.1077785470        0.2731610310        0.9089207140
 C          3.6565825416       -0.9694333222        0.3566154926
 C          3.5589748010       -1.2127614008       -0.9632459750
 C          4.0753189145       -2.4317710684       -1.6782048099
 C          3.1104163243       -3.6250857222       -1.6423352107
 C          2.9963440845       -4.3278629355       -0.2889271211
 H          3.9931915323       -4.5802949984        0.0741201847
 H          2.4624708363       -5.2649424211       -0.4585055497
 C          2.2459311508       -3.5222241686        0.7812174053
 H          1.5269386442       -4.1702178214        1.2887111518
 H          1.6664809691       -2.7290232829        0.3002496868
 C          3.1440044878       -2.9079761705        1.8558965554
 H          3.6240461888       -3.7045092762        2.4285070630
 H          2.5143171924       -2.3343497566        2.5412942509
 C          4.2312811282       -1.9708510287        1.3127772110
 H          5.0196905408       -2.5487439017        0.8318680255
 H          4.6605062185       -1.4210166163        2.1538733209
 H          3.4632034554       -4.3527917285       -2.3767497305
 H          2.1209801160       -3.2853227889       -1.9594860153
 H          5.0369076653       -2.7262110949       -1.2571933194
 H          4.2239866350       -2.1413407168       -2.7203180525
 O          2.9711165426       -0.3431140200       -1.8261450199
 C          2.3949787992        0.8373993585       -1.3771157341
 O          1.8441981652        1.5079097359       -2.2697939376
 O          3.1788660226        0.5133965450        2.1452502902
 C          1.8517949464        2.4243181311        0.4935360350
 C          0.3580952064        2.2937751107        0.3214627838
 C         -0.4223075482        3.1764330767       -0.4115186685
 C         -1.7787122182        2.9449511016       -0.5692066078
 C         -2.3835703827        1.8393323257       -0.0003900707
 C         -1.6124410143        0.9546050610        0.7428885867
 C         -0.2580775115        1.1910055604        0.9026796634
 H          0.3434270500        0.4952060937        1.4759140459
 N         -2.2208597152       -0.1819055408        1.3207449086
 S         -2.8315319586       -1.3023115035        0.2199792610
 O         -2.8490946451       -2.5639032634        0.9287658642
 O         -2.0951205616       -1.2749761451       -1.0240474226
 C         -4.5050121119       -0.7552523828       -0.0394402563
 C         -4.9157754054       -0.3649868878       -1.2987155636
 C         -6.2226549999        0.0638877905       -1.4730742462
 C         -7.0892876001        0.0949368765       -0.3911116653
 C         -6.6610667057       -0.3026111487        0.8669803771
 C         -5.3567157241       -0.7338063040        1.0479277175
 H         -4.9834617975       -1.0563538199        2.0054403108
 H         -7.3380135495       -0.2771807383        1.7056015686
 H         -8.1046187816        0.4313431456       -0.5295846588
 H         -6.5570556227        0.3732554106       -2.4502799803
 H         -4.2032506266       -0.3995713154       -2.1075485592
 H         -1.6124743841       -0.6596307526        1.9718786321
 H         -3.4378858621        1.6543448951       -0.1267151200
 H         -2.3723377637        3.6351116624       -1.1489434449
 H          0.0333807833        4.0366002985       -0.8732077306
 H          2.0704382749        2.4461858030        1.5713840249
 C          2.4454772248        3.6567589955       -0.1508967047
 C          2.3464737508        4.9808062672        0.5444748133
 C          3.6663001920        4.2771094596        0.4571960265
 H          4.4231315782        4.6757118637       -0.2014340982
 H          4.0639713619        3.8195550958        1.3513677520
 H          2.1985856750        5.8673321873       -0.0530861562
 H          1.8474480967        5.0049323391        1.5013160086
 H          2.3809644278        3.6375018868       -1.2324373651
