  62
        -98.94442050
 C          1.9000964212        0.8670133919        0.3767217204
 C          2.1822060866       -0.3312818358       -0.3226706583
 C          3.4749528833       -0.9649515255       -0.0186695002
 C          4.2807101280       -0.4232620704        0.9116745829
 C          5.6378038137       -0.9429950184        1.2852442246
 C          6.7368886187       -0.2842018538        0.4398854063
 C          6.4509120045       -0.2957741879       -1.0617718882
 H          5.5837157198        0.3368449824       -1.2642501785
 H          7.3074112197        0.1641679856       -1.5593867619
 C          6.2070264259       -1.6922363105       -1.6506665353
 H          6.7662474733       -1.7808752280       -2.5845090347
 H          6.5910010084       -2.4535323180       -0.9706071877
 C          4.7438675790       -1.9965845609       -1.9776039862
 H          4.3284340047       -1.1871486789       -2.5831040322
 H          4.7136815501       -2.9066498764       -2.5828446464
 C          3.8221584890       -2.2188856435       -0.7716539576
 H          4.2633226912       -2.9606483611       -0.1027177041
 H          2.8747302445       -2.6170395693       -1.1466060561
 H          6.8437678641        0.7547679055        0.7601818841
 H          7.6790254929       -0.7989079615        0.6370989007
 H          5.8149298343       -0.7145140889        2.3376243607
 H          5.6586271844       -2.0227035901        1.1503482694
 O          3.9610026820        0.7049390216        1.5936000283
 C          2.7826079354        1.3806310925        1.3343017921
 O          2.6314903287        2.4174430231        2.0103595006
 O          1.4121388363       -0.8688251984       -1.1644838819
 C          0.6343640310        1.6851233684        0.1664515060
 C         -0.5389449233        1.0890506396        0.9065494286
 C         -1.1642140629        1.7858186631        1.9334755355
 C         -2.2587332041        1.2471418087        2.5879993138
 C         -2.7522891764        0.0055290246        2.2300994942
 C         -2.1287415177       -0.7003651667        1.2095188377
 C         -1.0357703860       -0.1571256724        0.5516596431
 H         -0.5510200535       -0.7139133670       -0.2365570070
 N         -2.6374651053       -1.9591658092        0.8243083001
 S         -4.2317237936       -1.9439576832        0.3028953981
 O         -5.1052541855       -1.8989575810        1.4486462766
 O         -4.3752416444       -3.0958389042       -0.5588062664
 C         -4.3702272272       -0.4299032081       -0.6298826254
 C         -3.7308455549       -0.3603313340       -1.8516464817
 C         -3.7562825201        0.8329297988       -2.5541744676
 C         -4.4094585992        1.9334603596       -2.0208306103
 C         -5.0469606646        1.8470860164       -0.7932342718
 C         -5.0269522372        0.6552741740       -0.0867487989
 H         -5.5089959232        0.5450284071        0.8705994146
 H         -5.5542849020        2.7047858610       -0.3820802847
 H         -4.4217535974        2.8639761404       -2.5662624618
 H         -3.2622667435        0.9001800695       -3.5104044001
 H         -3.2339241546       -1.2365604519       -2.2369653625
 H         -2.0547653787       -2.4190838224        0.1385249910
 H         -3.6084966545       -0.4281449357        2.7212487539
 H         -2.7331156128        1.7999986281        3.3843210778
 H         -0.7785051442        2.7518583053        2.2250388622
 H          0.8438270059        2.6670837791        0.6106447935
 C          0.2900269015        1.8850110248       -1.2978194243
 C         -0.6188358766        3.0126438640       -1.6792829853
 C          0.8381242149        3.0734818199       -2.0258478005
 H          1.1312512610        2.9545664008       -3.0582229825
 H          1.4681506952        3.7535334493       -1.4706986975
 H         -1.3308761988        2.8518660070       -2.4733440995
 H         -0.9787298966        3.6529139482       -0.8884980033
 H          0.2056922156        0.9593582134       -1.8509270397
