  62
        -98.93685979
 C         -1.9853859433       -0.2385125499       -0.2427139411
 C         -2.7716185689        0.8152234798        0.2799182178
 C         -4.1445603134        0.4660716623        0.6951226770
 C         -4.5624328925       -0.8063673953        0.5919404951
 C         -5.9248080581       -1.3549623619        0.9138254362
 C         -6.8095278799       -1.3828899207       -0.3441325242
 C         -7.5752627688       -0.0899346020       -0.6227897325
 H         -8.0489576346       -0.1977175946       -1.6013442461
 H         -8.3719847957        0.0210778769        0.1158081827
 C         -6.7284562172        1.1854368331       -0.6240315942
 H         -5.7933555052        1.0055164593       -1.1575040614
 H         -7.2755307841        1.9492734965       -1.1801609581
 C         -6.4328197820        1.7145501996        0.7872195146
 H         -7.0760957526        1.2008247351        1.5014225316
 H         -6.6975722965        2.7727085494        0.8384936883
 C         -4.9684658896        1.6027763991        1.2369382629
 H         -4.4265374406        2.5047974640        0.9364513905
 H         -4.9330701351        1.5678326143        2.3308686828
 H         -6.1698915646       -1.6238391094       -1.1972668516
 H         -7.5364755293       -2.1914475887       -0.2435866088
 H         -5.7737777807       -2.3812245434        1.2552515606
 H         -6.3921452861       -0.7854509955        1.7116107600
 O         -3.7664470308       -1.7980179996        0.1047097301
 C         -2.4817418985       -1.5428347020       -0.3301465313
 O         -1.8841543819       -2.5453772727       -0.7730099209
 H          1.6458578154       -1.5864238565       -0.5525935033
 C          1.5466846807       -0.9024788906        0.2767455567
 C          0.4578874269       -0.0458080175        0.3503304585
 C          0.3616130377        0.8213693097        1.4339490196
 C          1.3267618710        0.8154978571        2.4240144879
 C          2.4198496623       -0.0294472984        2.3390680865
 C          2.5324920314       -0.8890255707        1.2540641113
 N          3.6478584077       -1.7404382512        1.1106402724
 S          4.6037791029       -1.5047190884       -0.2461013892
 O          3.8512963985       -1.8124465593       -1.4342155089
 O          5.7938271886       -2.2915581668       -0.0131711161
 C          5.0039966707        0.2336725756       -0.1946239513
 C          6.1805449514        0.6273675329        0.4128203850
 C          6.4574146074        1.9801368517        0.5263129659
 C          5.5502304167        2.9121379442        0.0453053636
 C          4.3719054614        2.5007403520       -0.5583134233
 C          4.0921076561        1.1489347944       -0.6824231582
 H          3.1856852622        0.7979790472       -1.1478588262
 H          3.6640620246        3.2244014144       -0.9293906752
 H          5.7620909736        3.9654836250        0.1396701696
 H          7.3746247200        2.3028100141        0.9920632675
 H          6.8569940405       -0.1319771687        0.7707779224
 H          4.2365774771       -1.7763506720        1.9316376019
 H          3.1789365323       -0.0258844959        3.1068677065
 H          1.2340440312        1.4861632669        3.2645564017
 H         -0.4769273102        1.4975927312        1.4917642813
 C         -0.5677283561       -0.0529552698       -0.7581780121
 H         -0.3670252716       -0.9335316424       -1.3842421328
 C         -0.3996419448        1.1863406125       -1.6183769292
 C          0.6820940093        1.2068531477       -2.6544037387
 C         -0.7555676452        1.1213142186       -3.0712824930
 H         -1.2148420060        1.9846591595       -3.5286328260
 H         -1.1196097921        0.1787579881       -3.4549137220
 H          1.2112412445        2.1308545724       -2.8312259890
 H          1.2920078554        0.3211060253       -2.7649255216
 H         -0.6172449272        2.1059728947       -1.0914962829
 O         -2.3723470417        2.0034378038        0.4042615766
