  62
        -98.94043278
 C         -1.8341755306       -1.1289979795        0.2385335505
 C         -2.1135522903       -0.0905308592       -0.6855898292
 C         -3.5401429303        0.1894698812       -0.9242253591
 C         -4.4778628505       -0.5319262388       -0.2863263194
 C         -5.9580251604       -0.3141461984       -0.4006334694
 C         -6.4590334602        0.6626289214        0.6724797309
 C         -5.6378203199        1.9484688311        0.7703899714
 H         -6.1018980198        2.5728551210        1.5369528816
 H         -4.6320859800        1.7051063408        1.1210584614
 C         -5.5377427697        2.7398475316       -0.5411538983
 H         -5.7047155995        3.7973247315       -0.3254916280
 H         -6.3238683398        2.4216033820       -1.2269772485
 C         -4.1818700697        2.6376667115       -1.2423578083
 H         -4.1483638795        3.3966187118       -2.0287224581
 H         -3.3828855397        2.8680721311       -0.5326385682
 C         -3.8696856500        1.2863522817       -1.8973042188
 H         -4.6972587900        0.9917317721       -2.5459412789
 H         -2.9770551999        1.4176904417       -2.5161125687
 H         -6.4239722504        0.1599894910        1.6418267808
 H         -7.4999301801        0.9094631317        0.4556192210
 H         -6.1887671303        0.0696621620       -1.3925009993
 H         -6.4587654306       -1.2745786383       -0.2669695397
 O         -4.1735286707       -1.5239383791        0.5882428003
 C         -2.8571863908       -1.8289292295        0.8880185102
 O         -2.7265096610       -2.7325529498        1.7372131299
 H          1.3008470797       -0.0706107698       -0.9146777691
 C          1.2198171497        0.3249720798        0.0858274411
 C          0.3774905296       -0.2901956903        0.9988266308
 C          0.2703545496        0.2532100093        2.2745613010
 C          0.9927100099        1.3786031790        2.6300912514
 C          1.8295466701        1.9922423791        1.7140899116
 C          1.9268580300        1.4665268896        0.4342469515
 N          2.7988382101        2.0827953097       -0.4988840883
 S          4.4089021501        1.6936024792       -0.2528397084
 O          4.8201497401        2.2232810387        1.0219103218
 O          5.1261495302        2.1730658695       -1.4123110582
 C          4.4225625196       -0.0899846108       -0.2095033290
 C          4.5649950895       -0.7842523104       -1.3943039992
 C          4.4687262992       -2.1663218704       -1.3773180297
 C          4.2187903990       -2.8253326108       -0.1831297899
 C          4.0747695492       -2.1132259811        0.9980174803
 C          4.1744905995       -0.7311864911        0.9877164108
 H          4.0675132696       -0.1421399114        1.8840272010
 H          3.8756177090       -2.6281900114        1.9242642401
 H          4.1339395288       -3.9008321207       -0.1724538703
 H          4.5813001991       -2.7241080001       -2.2932792999
 H          4.7577709897       -0.2325654802       -2.3006638690
 H          2.5487277501        1.8705697301       -1.4551981084
 H          2.4122772802        2.8615654289        1.9722801720
 H          0.9026869900        1.7822070687        3.6272876315
 H         -0.3892662505       -0.2189513208        2.9898660908
 C         -0.4181780807       -1.5173000600        0.6354823804
 H         -0.5407188609       -2.1228667003        1.5470604802
 C          0.3136748091       -2.3941947998       -0.3712379199
 C         -0.3973360711       -3.5248528094       -1.0508495103
 C          0.0639274592       -2.3427362393       -1.8469084499
 H          0.9091592192       -2.4699048392       -2.5077604799
 H         -0.6756899106       -1.6495082590       -2.2147367797
 H         -1.4556000711       -3.6299175792       -0.8592694604
 H          0.1207606487       -4.4639672795       -1.1707849806
 H          1.3380047191       -2.5811010601       -0.0623583699
 O         -1.2390258902        0.5751828809       -1.2969831589
