  62
        -98.94227118
 C          1.2027151271        1.1770243478       -0.0545336680
 C          1.6355042590        0.1731492703        0.8405899041
 C          2.7255677040       -0.7018378048        0.3784136940
 C          3.2168940169       -0.5417724692       -0.8644710546
 C          4.2753738506       -1.3160038070       -1.6223154024
 C          5.2384402203       -2.2475669054       -0.8905271404
 C          6.2142553412       -1.5478080726        0.0543975067
 H          6.7905090964       -2.3147968418        0.5765286115
 H          6.9120812692       -0.9552916079       -0.5425085698
 C          5.5794150691       -0.6162250173        1.0836821130
 H          5.0981936548        0.2204233853        0.5731534381
 H          6.3826231110       -0.2002383976        1.6978170804
 C          4.5684862089       -1.2720651238        2.0225450225
 H          5.0207149274       -2.1437851565        2.4992075466
 H          4.3310497498       -0.5476876415        2.8060630670
 C          3.2402017689       -1.7015755812        1.3733881015
 H          3.3176299957       -2.6868470164        0.9185678359
 H          2.4836797783       -1.7678355525        2.1610290277
 H          5.8283342146       -2.7507317227       -1.6617009190
 H          4.6864817865       -3.0206400104       -0.3637679591
 H          3.7315072309       -1.9014121666       -2.3726244527
 H          4.8521189463       -0.5669684176       -2.1744044182
 O          2.7325666734        0.4120346672       -1.7133357972
 C          1.7240258527        1.2865090394       -1.3416532517
 O          1.3928319074        2.0947981981       -2.2298550280
 H         -0.8066285333       -0.2095027446       -0.5990724652
 C         -1.4612242374        0.6037380061       -0.8714563840
 C         -1.1382496402        1.8998520874       -0.4951675605
 C         -1.9805596102        2.9315531278       -0.8913739384
 C         -3.1046638055        2.6625677199       -1.6531723268
 C         -3.4303703607        1.3667121941       -2.0110051626
 C         -2.5971423428        0.3272452122       -1.6142149503
 N         -2.8844237248       -1.0068738367       -1.9407245965
 S         -2.5401991008       -2.2066621635       -0.8263249362
 O         -1.1268828485       -2.4915728809       -0.8109016170
 O         -3.3977787876       -3.3068321007       -1.2148992103
 C         -3.0856151615       -1.5403488327        0.7365446888
 C         -2.1801800969       -1.1517649382        1.7018900095
 C         -2.6556222353       -0.5819433434        2.8731781158
 C         -4.0179512699       -0.4120550772        3.0598323823
 C         -4.9165409899       -0.8179424014        2.0843097411
 C         -4.4479507985       -1.3842409569        0.9110003537
 H         -5.1143598857       -1.7216632081        0.1338685545
 H         -5.9765839044       -0.6908738001        2.2335194364
 H         -4.3801429478        0.0364946102        3.9713986804
 H         -1.9478754477       -0.2693782139        3.6245863207
 H         -1.1220865502       -1.2844075548        1.5376644020
 H         -3.7738867516       -1.1549047444       -2.3940984492
 H         -4.3115608030        1.1594480495       -2.5983091247
 H         -3.7437664106        3.4745532306       -1.9648012428
 H         -1.7523085700        3.9467490087       -0.6111770596
 C          0.0836962762        2.1095428869        0.3661193033
 H         -0.1786604899        1.8040752397        1.3911286167
 C          0.5625234999        3.5462370367        0.3946209150
 C          0.0010723393        4.5132081276        1.3928444436
 C          1.4013591629        4.0040462908        1.5491241429
 H          2.2234653457        4.6763407233        1.3547853478
 H          1.6019464492        3.2854654275        2.3305357612
 H         -0.1369550602        5.5410714981        1.0929300578
 H         -0.7484383148        4.1468575478        2.0778264851
 H          0.8230686204        3.9159170167       -0.5906357486
 O          1.1241320141        0.0056679955        1.9815641120
