  62
        -98.94568581
 C          2.4906475424        1.1494967256       -0.0258147830
 C          3.1036481465        0.2739945575        0.9018533480
 C          3.6447107513       -0.9715790371        0.3486921345
 C          3.5365847047       -1.2179103945       -0.9698077100
 C          4.0478838493       -2.4383356331       -1.6859939129
 C          3.0835348465       -3.6317502411       -1.6417567166
 C          2.9783681055       -4.3317016946       -0.2862003439
 H          3.9775717053       -4.5834551763        0.0708033660
 H          2.4432815937       -5.2690635676       -0.4502788618
 C          2.2350597626       -3.5235089710        0.7869515264
 H          1.5191193988       -4.1701661198        1.3004491554
 H          1.6526998174       -2.7313228525        0.3078120787
 C          3.1400450107       -2.9070580010        1.8545854167
 H          3.6231365454       -3.7024667504        2.4261914019
 H          2.5146919969       -2.3315939694        2.5424475830
 C          4.2246472524       -1.9717410895        1.3029801421
 H          5.0096594274       -2.5511214846        0.8183103061
 H          4.6594372645       -1.4206548593        2.1403975507
 H          3.4317788260       -4.3608144742       -2.3769986732
 H          2.0919894043       -3.2927856983       -1.9531316605
 H          4.1897133800       -2.1496879633       -2.7295561457
 H          5.0122517342       -2.7318976342       -1.2707344546
 O          2.9423578142       -0.3500378823       -1.8301265280
 C          2.3709400040        0.8321131286       -1.3793669499
 O          1.8119028007        1.5001435006       -2.2687726150
 H          0.3497912478        0.4896627065        1.4708311679
 C         -0.2573080576        1.1929802447        0.9128478926
 C          0.3537088987        2.3006250289        0.3354985479
 C         -0.4346751183        3.1931223001       -0.3767834683
 C         -1.7936308173        2.9663292086       -0.5187695057
 C         -2.3931464492        1.8552130263        0.0450150786
 C         -1.6139635894        0.9607852686        0.7679393832
 N         -2.2167957128       -0.1829190813        1.3387356089
 S         -2.8110451531       -1.3003887339        0.2254231381
 O         -2.8290799630       -2.5662398407        0.9264546076
 O         -2.0627831572       -1.2614692762       -1.0113225038
 C         -4.4841312056       -0.7586276528       -0.0463961362
 C         -4.8794412666       -0.3437608251       -1.3027252910
 C         -6.1856413318        0.0835766999       -1.4857564994
 C         -7.0668659089        0.0887245234       -0.4151944652
 C         -6.6540723313       -0.3335787516        0.8399877179
 C         -5.3504534772       -0.7632353894        1.0295652608
 H         -4.9885631355       -1.1044278590        1.9849756017
 H         -7.3423543765       -0.3283489014        1.6696878912
 H         -8.0815595569        0.4242228021       -0.5603660433
 H         -6.5081141485        0.4121486733       -2.4606913978
 H         -4.1559443121       -0.3587080940       -2.1023694197
 H         -1.6051542785       -0.6611448641        1.9865568092
 H         -3.4494721800        1.6738287624       -0.0691151284
 H         -2.3935545016        3.6644962678       -1.0821885235
 H          0.0165558553        4.0578829110       -0.8343202232
 C          1.8496433193        2.4270917987        0.4904080174
 H          2.0801794645        2.4534100105        1.5657434757
 C          2.4401198443        3.6544019333       -0.1666732468
 C          2.3664958143        4.9801806922        0.5284633775
 C          3.6780783816        4.2646270911        0.4165762357
 H          4.4255687443        4.6554226013       -0.2572383788
 H          4.0889251633        3.8045861646        1.3034978683
 H          1.8867388966        5.0102940292        1.4949307728
 H          2.2151099839        5.8671474071       -0.0675766330
 H          2.3545821362        3.6341605888       -1.2467432608
 O          3.1868176308        0.5184079168        2.1366508635
