  62
        -98.94263929
 C          1.7946926381        1.5059943055        0.2359900913
 C          1.4525364482        0.1487490027        0.0063644846
 C          2.4702957029       -0.8405953163        0.4012298452
 C          3.6184043052       -0.4292316266        0.9662369457
 C          4.7588595675       -1.3266875299        1.3481943365
 C          5.7607838431       -1.4721443192        0.1940622593
 C          5.1135829727       -1.8146337720       -1.1480654531
 H          4.4973432795       -0.9727825991       -1.4721276593
 H          5.9185513628       -1.9216783206       -1.8785368088
 C          4.2611538214       -3.0912194800       -1.1352499045
 H          4.4988422373       -3.6790690753       -2.0244429652
 H          4.5188662133       -3.6990723691       -0.2672608359
 C          2.7511423517       -2.8458348817       -1.1521928126
 H          2.5009155208       -2.1651791089       -1.9698987466
 H          2.2563800924       -3.7988481001       -1.3568737277
 C          2.1514912019       -2.2861870135        0.1438808625
 H          1.0626759655       -2.3353789755        0.0564367873
 H          2.4612548846       -2.9041251435        0.9887294861
 H          6.3004716091       -0.5286138573        0.0827780922
 H          6.4833302767       -2.2460970447        0.4594879339
 H          5.2693513684       -0.8884397733        2.2074752008
 H          4.3685648188       -2.3028677642        1.6291944009
 O          3.8911254236        0.8776780032        1.2133742661
 C          2.9926310580        1.8694837424        0.8595555636
 O          3.3670228089        3.0227666545        1.1529590906
 O          0.3719286231       -0.2389203250       -0.5060160439
 C          0.8580877747        2.6506613409       -0.1180471027
 C         -0.5326183409        2.3309275324        0.3671771320
 C         -0.8211688873        2.4351323709        1.7239252623
 C         -2.0705794132        2.0937663145        2.2079801892
 C         -3.0516414776        1.6269176778        1.3511836429
 C         -2.7663591568        1.5040432608       -0.0022208534
 C         -1.5198976536        1.8721714378       -0.4895334345
 H         -1.3056072064        1.7597803728       -1.5406777997
 N         -3.7459315995        1.0088266804       -0.8829071492
 S         -4.5546346413       -0.3982340019       -0.4752674773
 O         -5.1449524347       -0.8580270588       -1.7128415769
 O         -5.4782450047       -0.1194447981        0.5971150834
 C         -3.3154863765       -1.5547939236        0.0763477005
 C         -3.1043854806       -1.7414469733        1.4267931809
 C         -2.1262093611       -2.6343491670        1.8329334966
 C         -1.3833010362       -3.3228655740        0.8873468758
 C         -1.6069833253       -3.1224572503       -0.4659485414
 C         -2.5781421616       -2.2261957149       -0.8776322737
 H         -2.7846259849       -2.0498420939       -1.9209457754
 H         -1.0240342797       -3.6554651793       -1.2001700991
 H         -0.6245963241       -4.0201822965        1.2074486329
 H         -1.9456123981       -2.7892885940        2.8847333478
 H         -3.7111454387       -1.1980351842        2.1322612142
 H         -3.4242845620        0.9514310623       -1.8386329481
 H         -4.0294153696        1.3502305199        1.7107322498
 H         -2.2824381067        2.1867407711        3.2625127721
 H         -0.0483139872        2.7799360897        2.3975403758
 H          1.2311087555        3.5125525866        0.4576774576
 C          0.8965222105        3.0584441613       -1.5839364445
 C          2.1967614951        3.0840641917       -2.3291341788
 C          1.1433420811        2.0841478644       -2.6947930800
 H          0.6087946623        2.2229221767       -3.6236539843
 H          1.3013770479        1.0498168685       -2.4335523291
 H          2.3887588285        3.9040547191       -3.0045732600
 H          3.0752745297        2.7359142237       -1.8051996552
 H          0.2047603976        3.8691402683       -1.7931509760
