  62
        -98.93619174
 C         -1.2673726903       -1.1672096704        0.5377091307
 C         -2.3676793003       -1.2199355607       -0.3492420693
 C         -3.4001162303       -0.1740218105       -0.1863772996
 C         -3.2383415302        0.7723113498        0.7543215001
 C         -4.1379579301        1.9343530400        1.0912567197
 C         -5.6401549801        1.6261026401        1.1932087698
 C         -6.4629378501        2.2347416398        0.0566160597
 H         -6.0783114700        3.2346633297       -0.1545327907
 H         -7.4954708901        2.3480277300        0.3945980897
 C         -6.4866484602        1.4188008393       -1.2347823800
 H         -6.9813526002        2.0237075691       -1.9983982002
 H         -7.0959443202        0.5246700294       -1.0853523997
 C         -5.1172099702        0.9860449090       -1.7630631499
 H         -4.3924698902        1.7916474590       -1.6543429303
 H         -5.2203863503        0.7933062887       -2.8330673999
 C         -4.5819727003       -0.2968143208       -1.1099050695
 H         -4.2514292404       -0.9917740711       -1.8879577693
 H         -5.3892095303       -0.8077526005       -0.5765569993
 H         -6.0039538200        2.0432465405        2.1336734697
 H         -5.7954874102        0.5491135702        1.2379301102
 H         -3.7708543700        2.3099814703        2.0490530995
 H         -3.9726021700        2.7284945397        0.3593659494
 O         -2.1407742101        0.8068037700        1.5640946400
 C         -1.1529877302       -0.1548591001        1.4933796503
 O         -0.2342901902       -0.0045047798        2.3246571102
 H          2.3989676397       -1.2909009205        0.8753655406
 C          2.1371791797       -1.3531093809       -0.1700185094
 C          0.8784760096       -1.7991025210       -0.5458637092
 C          0.5702956096       -1.8737842814       -1.9005165991
 C          1.5065211895       -1.5085074818       -2.8499317193
 C          2.7567040396       -1.0503760418       -2.4714611995
 C          3.0732991896       -0.9695836413       -1.1208538396
 N          4.3372752897       -0.5180947613       -0.7061836498
 S          4.4647492798        0.5668937692        0.5620602098
 O          5.8077446299        1.0923261991        0.4440443596
 O          4.1481730398       -0.0854589603        1.8057888101
 C          3.2844633399        1.8470540691        0.1778696794
 C          3.6691382499        2.8156979588       -0.7303596309
 C          2.7591791800        3.7911363887       -1.1007276213
 C          1.4788789200        3.7772628590       -0.5667333812
 C          1.1096256400        2.7993557594        0.3426180292
 C          2.0174001199        1.8222821994        0.7226824795
 H          1.7399027799        1.0589331197        1.4327483698
 H          0.1170935300        2.7777790496        0.7661494692
 H          0.7663023700        4.5334093489       -0.8566158414
 H          3.0466553400        4.5562487284       -1.8037426215
 H          4.6770145099        2.7967044386       -1.1125460310
 H          4.9508162297       -0.2528363316       -1.4633314899
 H          3.4841947496       -0.7607020921       -3.2143837597
 H          1.2575214695       -1.5726295022       -3.8983184893
 H         -0.4123549105       -2.2051435815       -2.1980107490
 C         -0.1257379304       -2.1725789105        0.5184192510
 H          0.3741291097       -2.0702628202        1.4917397309
 C         -0.5827440905       -3.6101594405        0.3708689015
 C          0.3439132795       -4.7061398904        0.7994042219
 C         -0.8880851505       -4.4094710301        1.5998811818
 H         -1.7077991205       -5.1113842500        1.5676291721
 H         -0.7688404704       -3.9221844397        2.5571849717
 H          1.2990092595       -4.4194993603        1.2144578217
 H          0.3725597394       -5.6142789206        0.2172202422
 H         -1.2015455405       -3.7828630008       -0.4989675484
 O         -2.5104206404       -2.0905764010       -1.2476924989
