  62
        -98.94117452
 C         -2.0404696601       -0.3813006047        0.0405927048
 C         -3.1278448406       -1.1104829696        0.5892629825
 C         -4.3417326838       -0.3422968951        0.8846111656
 C         -4.3503807120        0.9884529037        0.6906505650
 C         -5.5004311570        1.9171067024        0.9711179794
 C         -6.5323995512        1.9918216729       -0.1625870754
 C         -7.4200486008        0.7561038476       -0.3171496906
 H         -8.2316567631        1.0280176235       -0.9949732084
 H         -7.8690072549        0.5103089766        0.6457089693
 C         -6.6986319921       -0.4761656452       -0.8808756330
 H         -5.7613768085       -0.1660368600       -1.3489981428
 H         -7.3109209202       -0.9304634939       -1.6631701288
 C         -6.4013930240       -1.5642856093        0.1511376711
 H         -5.8597293928       -2.3718059241       -0.3483163690
 H         -7.3396266296       -1.9742736793        0.5312511693
 C         -5.5566242043       -1.0916870327        1.3416684219
 H         -5.2165436964       -1.9719673766        1.8926067601
 H         -6.1576225241       -0.4727287411        2.0075062657
 H         -6.0070680114        2.1833786833       -1.1012441414
 H         -7.1753948591        2.8517908980        0.0387627528
 H         -5.9950902641        1.6191199692        1.8960811246
 H         -5.0699057708        2.9110232064        1.1115553626
 O         -3.2685798236        1.6624640679        0.2221793199
 C         -2.0961717071        1.0027424147       -0.1346558968
 O         -1.2154172010        1.7625872424       -0.5771756959
 H          1.1590086215        0.3429216080       -1.5240412871
 C          1.3197768971        0.2443241177       -0.4619298498
 C          0.4235683390       -0.4832511369        0.3048249876
 C          0.6378408342       -0.5711495998        1.6772588279
 C          1.7127234503        0.0659634478        2.2678910421
 C          2.5968236753        0.8049561257        1.5019974492
 C          2.3921609303        0.8976332701        0.1317389690
 N          3.2837701379        1.6487117255       -0.6492386931
 S          4.9223954250        1.4986243462       -0.3685763169
 O          5.3031131049        2.2958354069        0.7711568845
 O          5.5554092646        1.8474031787       -1.6213004799
 C          5.1721010165       -0.2305156051       -0.0038092537
 C          5.6558916898       -0.6139207031        1.2301082308
 C          5.8098383293       -1.9645497045        1.4999801155
 C          5.4751991608       -2.9034520209        0.5370403041
 C          4.9934632654       -2.5023551160       -0.6999170912
 C          4.8388024975       -1.1537490122       -0.9752982230
 H          4.4734443239       -0.8079344011       -1.9288810934
 H          4.7356186055       -3.2349674339       -1.4478165512
 H          5.5911285316       -3.9544459277        0.7498742826
 H          6.1863918825       -2.2791245271        2.4599390155
 H          5.9024893467        0.1489618336        1.9504850701
 H          3.0623320104        1.6690229368       -1.6328882325
 H          3.4279454771        1.3274472888        1.9471730140
 H          1.8623135532       -0.0071177973        3.3343973359
 H         -0.0594459102       -1.1378430082        2.2788580990
 C         -0.7810325966       -1.1630185596       -0.2919978213
 H         -0.9192754310       -2.1254633526        0.2271199689
 C         -0.6136419302       -1.4920462429       -1.7681027665
 C         -1.8072286075       -1.8157755979       -2.6148029892
 C         -1.0272626981       -0.5621338711       -2.8676637556
 H         -0.4116904887       -0.5144541893       -3.7546458406
 H         -1.4649650230        0.3846108228       -2.5925749333
 H         -2.7810229889       -1.7267111051       -2.1554869365
 H         -1.7326190166       -2.6235586502       -3.3270769097
 H          0.2782226014       -2.0853818368       -1.9464156314
 O         -3.0833347306       -2.3468223126        0.8251508625
