  62
        -98.92877646
 C         -2.5307882406       -0.6325968924        0.4514682215
 C         -2.8843667280        0.7388495020        0.4464195712
 C         -4.1907872539        1.1049581206       -0.1317979621
 C         -4.9672063395        0.1272660124       -0.6341021381
 C         -6.3436879425        0.2433576426       -1.2328015045
 C         -7.4367920719        0.4369706005       -0.1691072723
 C         -7.0918133974        1.4345563477        0.9336552660
 H         -7.8914048382        1.3957140626        1.6782013990
 H         -6.1725036615        1.1170613713        1.4291666367
 C         -6.9481465085        2.8847958338        0.4784005231
 H         -6.7881930627        3.4913047642        1.3735351398
 H         -7.8846714886        3.2104968686        0.0201356399
 C         -5.8053063128        3.1699926148       -0.4981728923
 H         -5.6780997745        4.2556979155       -0.5415227481
 H         -6.0606469926        2.8496481033       -1.5046766863
 C         -4.4548402164        2.5907558433       -0.0880257739
 H         -3.6762038141        3.0461005447       -0.7121324025
 H         -4.2238847636        2.9077459289        0.9353615129
 H         -7.6211300585       -0.5305852871        0.3041869067
 H         -8.3550823415        0.7473887232       -0.6703923272
 H         -6.5353780618       -0.6929038431       -1.7616716543
 H         -6.3660417836        1.0464330787       -1.9634899336
 O         -4.5844298477       -1.1798061539       -0.6180425707
 C         -3.3734606535       -1.6023792768       -0.0921331354
 O         -3.1939759136       -2.8307456838       -0.1761508055
 O         -2.1368815870        1.6354516221        0.9250128331
 C         -1.1868665780       -0.9831204686        1.0630395745
 C         -0.0982838146       -0.9761947793        0.0195798612
 C         -0.2368786108       -1.6767667260       -1.1742243178
 C          0.7779964460       -1.6657719079       -2.1140343468
 C          1.9442933451       -0.9562502328       -1.8880908376
 C          2.0922974200       -0.2510672849       -0.7013283804
 C          1.0741740168       -0.2699156868        0.2447455942
 H          1.1867845211        0.2899508817        1.1634470781
 N          3.2652505655        0.4906249673       -0.4740700657
 S          4.7337783101       -0.2559614333       -0.8564179777
 O          4.9607841761       -0.1199106530       -2.2730022483
 O          4.7460876664       -1.6064992116       -0.3406220797
 C          5.8823065546        0.7667992342        0.0427946936
 C          6.2810778541        0.3808628153        1.3085921861
 C          7.1566591498        1.1931336072        2.0118330198
 C          7.6135426481        2.3718316943        1.4415393882
 C          7.2043771737        2.7453479960        0.1699321552
 C          6.3298448941        1.9375345738       -0.5393002371
 H          5.9925038315        2.1822991238       -1.5328910549
 H          7.5643381877        3.6610419624       -0.2706228291
 H          8.2955100642        3.0016359109        1.9906804096
 H          7.4791680543        0.9039487248        2.9991311573
 H          5.9089133708       -0.5488137258        1.7086131586
 H          3.2908452353        0.8894745184        0.4546410259
 H          2.7423370459       -0.9446140506       -2.6128229548
 H          0.6599684129       -2.2169306303       -3.0352788510
 H         -1.1435902340       -2.2348729724       -1.3539065634
 H         -0.9759085067       -0.1559351319        1.7596869315
 C         -1.2120505412       -2.2655791927        1.8826562046
 C         -0.5528655244       -3.5394914964        1.4577386285
 C          0.0301997179       -2.7371526546        2.5796458232
 H         -0.0518989964       -3.1148827216        3.5874420649
 H          0.9467217884       -2.2021654902        2.3793524681
 H         -1.0621142796       -4.4637985177        1.6833598415
 H         -0.0267542337       -3.5553794404        0.5162578120
 H         -2.1438558945       -2.3727636753        2.4289171458
