  62
        -98.94346518
 C          1.0248888499        0.8088501487        0.9291999663
 C          1.5346634798        0.7870260731       -0.3934247847
 C          2.2019607013       -0.4587663095       -0.8030274282
 C          2.2113259947       -1.5122219619        0.0314367730
 C          2.8800979717       -2.8266792356       -0.2474763736
 C          4.3292731776       -2.8343656701        0.2593551947
 C          5.1406946680       -1.6116838796       -0.1686123978
 H          4.7223642564       -0.7216922025        0.3068881098
 H          6.1525042129       -1.7399587078        0.2217321205
 C          5.2026786271       -1.3905421726       -1.6863194379
 H          4.9278432542       -2.3088339078       -2.2066007970
 H          6.2320314552       -1.1552062690       -1.9647743125
 C          4.3300629416       -0.2416546169       -2.1957097336
 H          4.5372818987        0.6608829657       -1.6150158817
 H          4.6099912678       -0.0349695459       -3.2321382273
 C          2.8166859865       -0.4924785936       -2.1730172538
 H          2.3317932559        0.3112031558       -2.7355702637
 H          2.5882446529       -1.4365565314       -2.6729973008
 H          4.8162011051       -3.7414694147       -0.1031438241
 H          4.3132401099       -2.8695676724        1.3510647757
 H          2.3215318460       -3.6132113812        0.2634178606
 H          2.8546779905       -3.0181273238       -1.3188541455
 O          1.6358660808       -1.4841912193        1.2610932118
 C          1.0326329162       -0.3297723041        1.7372999981
 O          0.5362473868       -0.4483936209        2.8751923978
 H         -1.5295935719        0.4378305268        0.4186650155
 C         -1.6245328243        1.4339462745        0.0115762615
 C         -0.7612716145        2.4272990275        0.4574216303
 C         -0.8943620939        3.7060727835       -0.0639999985
 C         -1.8536622770        3.9657578479       -1.0285056723
 C         -2.6786409960        2.9625089030       -1.5028931639
 C         -2.5556975976        1.6792267188       -0.9811128366
 N         -3.3707315154        0.6252336210       -1.4225778768
 S         -2.7344546981       -0.9205489036       -1.5248049652
 O         -1.3424169086       -0.9181358166       -1.9093087214
 O         -3.6372051022       -1.6139998064       -2.4213304311
 C         -2.9288135902       -1.5890991264        0.1133305460
 C         -1.8566815198       -2.2109658968        0.7212704644
 C         -2.0134989002       -2.7303300606        1.9959666560
 C         -3.2392569058       -2.6239057782        2.6346768690
 C         -4.3103807051       -2.0055169802        2.0070918394
 C         -4.1577598467       -1.4815698096        0.7335141680
 H         -4.9642840348       -0.9913553883        0.2144895206
 H         -5.2610277744       -1.9261849842        2.5093629099
 H         -3.3558857480       -3.0239384982        3.6294665375
 H         -1.1735316360       -3.1956174122        2.4866861495
 H         -0.9146501085       -2.2575485275        0.1953206891
 H         -3.9639844005        0.8424316786       -2.2101777970
 H         -3.4043654753        3.1638861852       -2.2761671242
 H         -1.9452540185        4.9621751400       -1.4338773802
 H         -0.2316357001        4.4915527645        0.2602328470
 C          0.2742510721        2.0142466419        1.4745863213
 H         -0.2631651386        1.6304923975        2.3580344080
 C          1.1505434381        3.1550300350        1.9665286799
 C          2.5593254608        2.9049323836        2.4140508844
 C          2.2977622968        3.6965214684        1.1697898927
 H          2.4792031527        4.7613293331        1.1955538397
 H          2.4991411555        3.2414008855        0.2135780796
 H          2.9203622180        3.4217488811        3.2906054436
 H          2.9437550819        1.9003623544        2.3090567484
 H          0.5844337480        3.8739474644        2.5509729046
 O          1.4523567820        1.7519666805       -1.1962170921
