  62
        -98.93899418
 C         -2.7118301656       -0.9902563498        0.2686940342
 C         -2.4900796052       -0.1934003006       -0.8805288218
 C         -2.9851314185        1.1915198219       -0.8130597191
 C         -3.6294346255        1.6124769925        0.2886186461
 C         -4.2249088947        2.9725368865        0.5485706758
 C         -3.3456172028        4.1899009087        0.2179129885
 C         -1.8307156234        3.9545108513        0.3203405353
 H         -1.3866128141        4.7519458930        0.9196804896
 H         -1.6238125408        3.0137426876        0.8344593639
 C         -1.1307388707        3.9528587609       -1.0413964947
 H         -1.5284484284        4.7782145500       -1.6367165991
 H         -0.0647968484        4.1405955629       -0.8867696207
 C         -1.2374479429        2.6562956029       -1.8453430994
 H         -0.5922329818        1.8928889730       -1.3991871224
 H         -0.8401058112        2.8512857205       -2.8446456398
 C         -2.6516463069        2.0690538346       -1.9838226978
 H         -3.3907221718        2.8547996664       -2.1226749939
 H         -2.6570735840        1.4199510279       -2.8635864369
 H         -3.5758292215        4.5418720607       -0.7867539903
 H         -3.6340458165        4.9866954275        0.9050818375
 H         -5.1644066620        3.0482140596       -0.0053319851
 H         -4.4737183625        2.9766856590        1.6121351210
 O         -3.8505373728        0.7994589892        1.3602730575
 C         -3.3715417997       -0.5004578129        1.3928429776
 O         -3.5892591801       -1.1032436684        2.4644473339
 H         -0.4906157579       -0.7012551728        1.5313493030
 C          0.0535120273       -1.3440838033        0.8480320620
 C         -0.6421013180       -2.3137993297        0.1356369599
 C          0.0699741649       -3.1321949162       -0.7301780913
 C          1.4343718079       -2.9602475211       -0.8932776478
 C          2.1162634344       -1.9767674928       -0.2007538780
 C          1.4154465625       -1.1616437298        0.6786435543
 N          2.0999622205       -0.1492975969        1.3851851682
 S          2.7939742215        1.0563653377        0.4325604148
 O          2.8709785936        2.2203838983        1.2894973529
 O          2.0854764896        1.2204631720       -0.8145209387
 C          4.4376979053        0.4431423722        0.1337371717
 C          5.2572147285        0.2283859255        1.2246017854
 C          6.5376183706       -0.2573646416        1.0136629641
 C          6.9741744292       -0.5168083707       -0.2771995381
 C          6.1400608566       -0.2924868357       -1.3618586031
 C          4.8573676505        0.1926334102       -1.1577155347
 H          4.1701934453        0.3763744551       -1.9683159490
 H          6.4814135397       -0.4944474231       -2.3644113430
 H          7.9707665524       -0.8961160570       -0.4389357400
 H          7.1892761252       -0.4328547284        1.8543442027
 H          4.8782319269        0.4475908533        2.2088176000
 H          1.5293023210        0.2831750280        2.0987124753
 H          3.1757970366       -1.8316795976       -0.3354326368
 H          1.9731222964       -3.5978279115       -1.5774165079
 H         -0.4459525665       -3.8947473740       -1.2900922961
 C         -2.1378347602       -2.3947937146        0.3312609682
 H         -2.3346892777       -2.7614291884        1.3495360722
 C         -2.8329054566       -3.3037897474       -0.6596367649
 C         -2.9380694548       -4.7739318877       -0.3892898965
 C         -4.1534763679       -3.9038478393       -0.2848814456
 H         -4.9164021909       -3.9856424403       -1.0443236250
 H         -4.5396760350       -3.6752006142        0.6980498602
 H         -2.8701111543       -5.4576673921       -1.2218730359
 H         -2.5033060870       -5.1464928996        0.5258421553
 H         -2.7044182302       -2.9754240160       -1.6844409117
 O         -1.9075241199       -0.6143316807       -1.9124489686
