  62
        -98.93812159
 C         -2.1789604118       -0.8232439811        0.0205482586
 C         -2.8703346111       -0.1186607791        1.0313635368
 C         -3.7073403131        1.0101161524        0.5893113029
 C         -3.7409236280        1.3236845761       -0.7178567244
 C         -4.5682937971        2.3903746966       -1.3800517806
 C         -5.8962015075        1.8057994762       -1.8910963184
 C         -7.0310963697        1.7924594782       -0.8677126413
 H         -7.3734772338        2.8155043270       -0.6983327195
 H         -7.8615287897        1.2384117540       -1.3111790845
 C         -6.6875725411        1.1624844545        0.4847338935
 H         -6.1110935113        0.2485521056        0.3301822477
 H         -7.6236964760        0.8756688787        0.9677348603
 C         -5.9207454343        2.1131153180        1.4161185734
 H         -5.9740002690        3.1248737420        1.0143080767
 H         -6.4139573913        2.1407951474        2.3899762659
 C         -4.4534893628        1.7377681272        1.6744492875
 H         -3.8945297950        2.6425125928        1.9373608338
 H         -4.3951204511        1.0738550583        2.5428923435
 H         -5.7016159351        0.7881002456       -2.2390056506
 H         -6.2261621561        2.3882454446       -2.7536379904
 H         -4.7390205759        3.2224517747       -0.7033858142
 H         -3.9916163543        2.7447601088       -2.2369249309
 O         -3.0284867894        0.6407408333       -1.6556432507
 C         -2.2372985095       -0.4453105168       -1.3208171143
 O         -1.6487490584       -0.9714557633       -2.2828952336
 H          0.0729479177        0.2309014120        0.7424163526
 C          0.6857271899       -0.5405964696        0.2906205919
 C          0.1208703202       -1.7822734349        0.0250955467
 C          0.9255297671       -2.7651063763       -0.5362430117
 C          2.2501233480       -2.4998661390       -0.8390093238
 C          2.8014084709       -1.2572300059       -0.5887723201
 C          2.0096827093       -0.2698660056       -0.0167101997
 N          2.5629827335        1.0002218000        0.2373308794
 S          3.9271826744        1.0585154218        1.2197758936
 O          3.9505281538       -0.0448355513        2.1524367376
 O          3.9247272990        2.3865075310        1.7940530387
 C          5.2874592158        0.9216347756        0.0797594177
 C          5.4068156598        1.8770911220       -0.9104228515
 C          6.4649960236        1.7886545435       -1.8007293118
 C          7.3819023088        0.7543254435       -1.6844966135
 C          7.2500280847       -0.1947958553       -0.6824274837
 C          6.1930527136       -0.1129184077        0.2107957212
 H          6.0466760866       -0.8297825421        1.0028434346
 H          7.9642667885       -0.9974746961       -0.5933840790
 H          8.2043719627        0.6881830496       -2.3791014690
 H          6.5709979446        2.5249892232       -2.5810836625
 H          4.6755279196        2.6664829960       -0.9626803897
 H          1.8825216341        1.6757720251        0.5549347306
 H          3.8294972411       -1.0439978824       -0.8317350163
 H          2.8606605005       -3.2724069746       -1.2807191892
 H          0.5146005700       -3.7401600313       -0.7398758716
 C         -1.3216798874       -2.0140861902        0.4043664911
 H         -1.3749422359       -2.0709182883        1.5026346944
 C         -1.9027327057       -3.2868662836       -0.1764388890
 C         -1.7439653459       -4.5915032084        0.5438245744
 C         -3.0809571993       -3.9165980568        0.5023220004
 H         -3.8600678341       -4.3464845763       -0.1091036210
 H         -3.4446445944       -3.4431198342        1.4028799032
 H         -1.6074568387       -5.4895025611       -0.0396284550
 H         -1.2028688294       -4.5845380390        1.4780594139
 H         -1.8880470594       -3.2918723842       -1.2605619632
 O         -2.7938849049       -0.4201058625        2.2548501614
