  62
        -98.94414909
 C         -1.8582633967       -1.3452419432        0.1205042978
 C         -2.0418239655       -0.3635452176       -0.8833055196
 C         -3.3944935589        0.2054696020       -0.9888253331
 C         -4.3635619386       -0.2183383126       -0.1585397441
 C         -5.7633846771        0.3206725271       -0.1215548951
 C         -5.8853675955        1.4828520323        0.8739472409
 C         -4.8039505103        2.5513568742        0.7124439928
 H         -5.0095400597        3.3352625658        1.4446801456
 H         -3.8338706121        2.1195596641        0.9702221532
 C         -4.7267292118        3.1700997344       -0.6903782440
 H         -4.6316199691        4.2534477670       -0.5900730659
 H         -5.6527220889        2.9755837115       -1.2327306742
 C         -3.5388254663        2.6949531718       -1.5291396909
 H         -2.6173933714        2.8039425445       -0.9509581626
 H         -3.4563222045        3.3489956196       -2.4014393456
 C         -3.6199085841        1.2521742079       -2.0439554875
 H         -4.5767245931        1.0942890373       -2.5453423500
 H         -2.8207040892        1.1165308306       -2.7783509374
 H         -6.8699805730        1.9384049430        0.7539761260
 H         -5.8186336156        1.0797586900        1.8871620738
 H         -6.0472100265        0.6514563457       -1.1187258720
 H         -6.4329627436       -0.4831658712        0.1889935945
 O         -4.1565120287       -1.1687216756        0.7868297756
 C         -2.9109353448       -1.7467223597        0.9514640772
 O         -2.8643538185       -2.6039814316        1.8560804232
 H          0.4445651673        0.3857735097       -0.2624024423
 C          0.8403300602        0.0287708470        0.6769621528
 C          0.4260217538       -1.2027304641        1.1641374340
 C          0.9481251061       -1.6460113583        2.3733368314
 C          1.8621930191       -0.8767277366        3.0732080879
 C          2.2712790874        0.3513467509        2.5843021864
 C          1.7470970677        0.8054740512        1.3816941671
 N          2.1686649696        2.0533102694        0.8641418152
 S          3.7658050856        2.0775040502        0.3518852038
 O          4.6246973187        1.9882802008        1.5052001291
 O          3.9051975807        3.2650698696       -0.4597743443
 C          3.9257157927        0.6110070200       -0.6495374385
 C          4.3253904979       -0.5708621344       -0.0590703188
 C          4.3605762389       -1.7227771120       -0.8278172724
 C          3.9948794693       -1.6728542100       -2.1640508403
 C          3.5916975116       -0.4786769664       -2.7411761816
 C          3.5498438990        0.6753525926       -1.9761679004
 H          3.2438600322        1.6241377049       -2.3876448658
 H          3.3032919069       -0.4441542301       -3.7796405779
 H          4.0262853340       -2.5698281707       -2.7628975075
 H          4.6675928991       -2.6546001101       -0.3810626496
 H          4.6044812801       -0.5661726098        0.9817511852
 H          1.5816579699        2.3679214296        0.1030469226
 H          2.9933684698        0.9580925075        3.1064569977
 H          2.2595730442       -1.2362696421        4.0101641200
 H          0.6261821347       -2.5981722587        2.7690794016
 C         -0.5361963666       -2.0549211614        0.3724426615
 H         -0.7884948258       -2.9313820719        0.9836998694
 C          0.1311342268       -2.5379434047       -0.9023882099
 C          1.0691236685       -3.7030955839       -0.8321514113
 C         -0.2719466487       -3.8581729416       -1.4831024009
 H         -0.3201151111       -3.9546545549       -2.5572254521
 H         -1.0323543249       -4.4213525319       -0.9611949203
 H          1.2197532461       -4.1667320356        0.1307955402
 H          1.9462548860       -3.6925448531       -1.4592258780
 H          0.3673235664       -1.7399545142       -1.5937230601
 O         -1.1387532302        0.0412532181       -1.6650188936
