  62
        -98.94293338
 C         -1.8089671465       -0.8431062162        0.3601455888
 C         -3.1568935381       -1.1104868976        0.7125434617
 C         -4.0569838508        0.0474290394        0.7474679944
 C         -3.5685569624        1.2780542932        0.5106169357
 C         -4.3543627639        2.5609281740        0.5248189780
 C         -5.0812724365        2.8599487313       -0.7935864757
 C         -6.3014348045        1.9828729117       -1.0774779160
 H         -6.9680581672        1.9990306857       -0.2146677826
 H         -6.8373871843        2.4400583053       -1.9116144431
 C         -5.9667276141        0.5302166337       -1.4444321869
 H         -4.9141319781        0.4599200326       -1.7293792685
 H         -6.5527781664        0.2299901843       -2.3160760064
 C         -6.2497280686       -0.4850063006       -0.3367732523
 H         -7.3230090690       -0.5196964106       -0.1373863494
 H         -5.9416551320       -1.4727184722       -0.6899989612
 C         -5.5161099461       -0.2025001375        0.9809102357
 H         -5.9717571014        0.6458276941        1.4910713201
 H         -5.6045255470       -1.0851195623        1.6191277680
 H         -5.4105492473        3.9008795331       -0.7552403652
 H         -4.3673636660        2.7677548005       -1.6155113556
 H         -3.6373539305        3.3630204734        0.7121533931
 H         -5.0753717895        2.5406118235        1.3424599207
 O         -2.2552368527        1.5021734058        0.2456748339
 C         -1.3466194204        0.4549608188        0.1444545361
 O         -0.1884636001        0.8235262028       -0.1226666225
 O         -3.5845439022       -2.2618750178        0.9912431929
 C         -0.8605754662       -2.0236163890        0.2649729636
 C          0.4398379676       -1.7247198836        0.9672556438
 C          0.4126124711       -1.4684872418        2.3365500129
 C          1.5757292758       -1.1994190105        3.0300767684
 C          2.7939362896       -1.1834150636        2.3728915532
 C          2.8339303218       -1.4400704242        1.0083777839
 C          1.6619361364       -1.7120957061        0.3136376919
 H          1.7223259155       -1.8800705446       -0.7482610855
 N          4.0635759548       -1.4702982506        0.3237698029
 S          4.3306452849       -0.5060808678       -1.0178787447
 O          3.3401404244       -0.7761721893       -2.0260193604
 O          5.7050216614       -0.7718751832       -1.3863924718
 C          4.2027868561        1.1667588819       -0.4103405275
 C          5.3673717205        1.8746599422       -0.1803533607
 C          5.2848105764        3.1528619341        0.3465668033
 C          4.0435257000        3.6960037355        0.6432110313
 C          2.8862387888        2.9695904038        0.4106552301
 C          2.9588327129        1.6907281175       -0.1214591353
 H          2.0645660741        1.1172249180       -0.3070423026
 H          1.9156859298        3.3809580091        0.6389234807
 H          3.9764923311        4.6900607571        1.0569172346
 H          6.1844926519        3.7192275967        0.5262574670
 H          6.3091230155        1.4117626232       -0.4276568895
 H          4.8669423611       -1.4096308802        0.9341181322
 H          3.7059954287       -0.9765694720        2.9122957687
 H          1.5362244966       -0.9993143192        4.0901995470
 H         -0.5401109154       -1.4792376183        2.8488842753
 H         -1.3678496143       -2.8269319893        0.8263324126
 C         -0.6670726846       -2.5432736081       -1.1519245163
 C         -1.7456495572       -2.4097270902       -2.1839761494
 C         -0.4755918049       -1.6277619811       -2.3220080759
 H          0.2333679808       -1.9122354837       -3.0861786849
 H         -0.4985539642       -0.5654079959       -2.1357826662
 H         -1.9188639270       -3.2371509590       -2.8555361180
 H         -2.6443513172       -1.8787393791       -1.9049364778
 H         -0.1036039644       -3.4717070548       -1.1683399381
