  62
        -98.94577987
 C          1.5221717286        1.5236273009        0.0287244692
 C          1.3865785693        0.1158468009        0.1030108296
 C          2.5920492398       -0.6152330184        0.5151879596
 C          3.7164779495        0.0592013723        0.8147546693
 C          5.0205687999       -0.5483652369        1.2558406193
 C          5.9019176700       -1.0376170567        0.0981090593
 C          5.4164324905       -2.3089736372       -0.5998587503
 H          6.2345889306       -2.6573782569       -1.2334737804
 H          5.2303970111       -3.0826779371        0.1455075399
 C          4.1663671103       -2.1173645781       -1.4702867002
 H          4.0245040097       -1.0534353282       -1.6741210605
 H          4.3157364604       -2.6093069982       -2.4342285601
 C          2.8798510307       -2.6811967986       -0.8662714799
 H          2.9588721213       -3.7675994485       -0.7877185896
 H          2.0540792805       -2.4482253892       -1.5430701898
 C          2.5309993106       -2.1124878384        0.5149050800
 H          1.5037396308       -2.3970699889        0.7542220603
 H          3.1992472509       -2.5225304779        1.2714488600
 H          5.9944862594       -0.2324917969       -0.6345769710
 H          6.8970231901       -1.2306220861        0.5056747792
 H          5.5620583195        0.2324878335        1.7940855890
 H          4.8278301704       -1.3735176268        1.9418799695
 O          3.7927248087        1.4167470923        0.7654162489
 C          2.7079687983        2.1783019216        0.3610106789
 O          2.9196527076        3.4083005917        0.3469273285
 H         -2.1082972914        1.1706856487       -0.9148507802
 C         -1.9793183714        1.4886238091        0.1051636597
 C         -0.8170601917        2.1229069198        0.5113063094
 C         -0.7001570217        2.5190155502        1.8418384593
 C         -1.7218105014        2.2850450499        2.7411418595
 C         -2.8756470212        1.6359894292        2.3361370098
 C         -2.9999461011        1.2349652088        1.0117692299
 N         -4.1622408808        0.5865443980        0.5697288003
 S         -4.0969731504       -0.6327779822       -0.5668303494
 O         -3.8325641208       -0.0867269525       -1.8746698096
 O         -5.3732347600       -1.3056754929       -0.4234356090
 C         -2.8039134597       -1.7622586014       -0.0830440093
 C         -2.0201793495       -2.3343110313       -1.0620000493
 C         -1.0791784790       -3.2834858107       -0.7004809191
 C         -0.9351891786       -3.6393783002        0.6301950409
 C         -1.7238794488       -3.0485777004        1.6044567509
 C         -2.6723886193       -2.1052508510        1.2469800508
 H         -3.3008016395       -1.6383088111        1.9881364007
 H         -1.6010673985       -3.3186390401        2.6414790910
 H         -0.2011703681       -4.3793809798        0.9102880110
 H         -0.4559842488       -3.7357781905       -1.4556059591
 H         -2.1549042698       -2.0203383016       -2.0848065693
 H         -4.8429373606        0.3866994479        1.2875947904
 H         -3.6736926809        1.4454224789        3.0376543600
 H         -1.6181505715        2.6021378002        3.7678794794
 H          0.2094750881        3.0113198108        2.1590325490
 C          0.3446231881        2.3731403602       -0.4175624609
 H          0.6601655075        3.4197077604       -0.3027634312
 C          0.0280584180        2.1170800996       -1.8756741307
 C         -0.7383264627        3.1369105790       -2.6610061209
 C          0.7212592574        2.9257996897       -2.9285440411
 H          1.0129371875        2.4370133796       -3.8461438210
 H          1.4180070670        3.6820317302       -2.5965659614
 H         -1.4541898526        2.7920804684       -3.3919410207
 H         -1.0343745731        4.0401808090       -2.1490942811
 H         -0.1518105315        1.0703742095       -2.0930342604
 O          0.3235432696       -0.5011675298       -0.1601995801
