  62
        -98.93602651
 C          1.6816932002        0.4183394497        0.2396867604
 C          2.8717215802        0.7785889492        0.9112821208
 C          4.1403821802        0.3762922293        0.2763226308
 C          4.1017334703       -0.2772108301       -0.8988640895
 C          5.2478961604       -0.7978965999       -1.7293739796
 C          6.4664014805        0.1244576800       -1.8876172890
 C          7.7012001103       -0.3620770005       -1.1266782490
 H          7.7588555302       -1.4488134805       -1.2174713794
 H          8.5917037405        0.0519558596       -1.6048679187
 C          7.7490579201        0.0242135688        0.3506111712
 H          8.5955984100       -0.4989755115        0.8015595511
 H          7.9452124203        1.0950025988        0.4380201917
 C          6.4875306300       -0.3018330613        1.1522565909
 H          6.0962107199       -1.2780310512        0.8675864504
 H          6.7686460898       -0.3662395918        2.2055974509
 C          5.3866020801        0.7620870189        1.0257656311
 H          5.7977789103        1.6739117490        0.5836271116
 H          5.0324390900        1.0447647285        2.0219911412
 H          6.7186903607        0.1610013004       -2.9486731489
 H          6.2072017506        1.1371864899       -1.5834282486
 H          5.5626449902       -1.7601837201       -1.3173248799
 H          4.8123223305       -1.0088174194       -2.7088185597
 O          2.9273210204       -0.5965193097       -1.5163175898
 C          1.6963042603       -0.2756022098       -0.9688036399
 O          0.7193922604       -0.6510583694       -1.6439934802
 O          2.8771025001        1.4031939788        2.0067640310
 C          0.3470274902        0.7795420096        0.8657809404
 C         -0.4405772400       -0.4734858504        1.1583462797
 C          0.1712159097       -1.4883846508        1.8910891893
 C         -0.5073956705       -2.6530793309        2.1887985387
 C         -1.8121746605       -2.8313642705        1.7626892584
 C         -2.4365429402       -1.8226626301        1.0399770488
 C         -1.7531709200       -0.6485921601        0.7493294094
 H         -2.2530157598        0.1174299602        0.1814052197
 N         -3.7745968102       -1.9580094898        0.6457990085
 S         -4.3272348299       -1.3462397991       -0.8097303913
 O         -5.5875010799       -2.0302785188       -1.0171527018
 O         -3.3557162797       -1.4797965887       -1.8684910812
 C         -4.6639763297        0.3700718308       -0.4786610306
 C         -4.3052240394        1.3187873712       -1.4152472101
 C         -4.6152507193        2.6486876011       -1.1753626696
 C         -5.2747852394        3.0038749107       -0.0084224496
 C         -5.6265579897        2.0383158503        0.9226623400
 C         -5.3240987398        0.7068847904        0.6866891694
 H         -5.5847932200       -0.0708908999        1.3845191190
 H         -6.1363738798        2.3195448500        1.8298753200
 H         -5.5122083593        4.0397008407        0.1761898208
 H         -4.3400646791        3.4000059814       -1.8988171592
 H         -3.7808512593        0.9987428715       -2.3022033502
 H         -4.1894345003       -2.8553865198        0.8505222181
 H         -2.3431734906       -3.7437218105        1.9882417280
 H         -0.0173768707       -3.4323788312        2.7530466885
 H          1.1922816697       -1.3500729411        2.2198210196
 H          0.5994799701        1.2529203591        1.8265835906
 C         -0.3984107996        1.7835138401        0.0133658407
 C         -1.3540299195        2.7428855299        0.6560476309
 C         -0.0413086494        3.2343231100        0.1265764014
 H         -0.0365603392        3.8343502704       -0.7708821084
 H          0.7314538005        3.4998043096        0.8331718216
 H         -2.2556590194        3.0069286103        0.1248001009
 H         -1.4755407997        2.6795804695        1.7266541509
 H         -0.6357125395        1.4008060705       -0.9735683295
