  62
        -98.94104949
 C         -2.0054630955       -0.9095165588       -0.2039234056
 C         -2.3530441432       -0.1468641402        0.9409770372
 C         -2.4571369614        1.3047729539        0.7614423027
 C         -2.1830130006        1.8332712974       -0.4445737081
 C         -2.2582441142        3.2944649374       -0.7802327205
 C         -3.6497435791        3.6802157519       -1.3011354266
 C         -4.7963422579        3.1788820019       -0.4233172340
 H         -4.8164380431        2.0872821858       -0.4565008294
 H         -5.7274045929        3.5328087713       -0.8708973643
 C         -4.7231570941        3.6393704636        1.0391265494
 H         -5.7134527508        3.9787279944        1.3496317441
 H         -4.0461288354        4.4897691516        1.1259571463
 C         -4.2959120472        2.5505177905        2.0250408729
 H         -4.9106229674        1.6595022354        1.8758223098
 H         -4.4866763835        2.9147660569        3.0379304062
 C         -2.8211307572        2.1328666786        1.9617803010
 H         -2.6142713898        1.5016786936        2.8310755663
 H         -2.1827307382        3.0170686465        2.0226940825
 H         -3.7727552456        3.2580490135       -2.3011420361
 H         -3.6981286861        4.7676309115       -1.3822394223
 H         -1.5151721374        3.5038457719       -1.5521090907
 H         -2.0149038512        3.8746264212        0.1081074241
 O         -1.8466366293        1.0787628354       -1.5191279418
 C         -1.7294564172       -0.3029957863       -1.4300004851
 O         -1.3943173386       -0.8376612657       -2.5058669852
 O         -2.5693181954       -0.6682879156        2.0696463681
 C         -1.8144084272       -2.3979078499        0.0268728975
 C         -0.4055148139       -2.6633653146        0.5106291136
 C         -0.1552113120       -3.5958800902        1.5110776864
 C          1.1298168438       -3.7945360165        1.9830991177
 C          2.1838123483       -3.0447265765        1.4925684325
 C          1.9442133928       -2.1156850097        0.4868626820
 C          0.6627473863       -1.9555253969       -0.0177797035
 H          0.5044455453       -1.2380260230       -0.8090372089
 N          2.9755120714       -1.3177520564       -0.0342140188
 S          2.5887583618        0.2893190088       -0.4030790543
 O          1.6329264473        0.8022698439        0.5523573426
 O          2.2240157029        0.3716897106       -1.7951119489
 C          4.1749079761        1.0706107420       -0.1608412467
 C          5.1025840182        1.0350959233       -1.1848786177
 C          6.3447888919        1.6158324091       -0.9834620533
 C          6.6375584677        2.2180030946        0.2313028949
 C          5.6960196363        2.2470840283        1.2490959758
 C          4.4522431419        1.6668648446        1.0548175203
 H          3.6845993878        1.6722377275        1.8121232560
 H          5.9242673448        2.7188855816        2.1911770259
 H          7.6043833130        2.6705076077        0.3847336397
 H          7.0777229137        1.5978494288       -1.7737042913
 H          4.8244411497        0.5653268566       -2.1139629963
 H          3.8350437460       -1.3857006852        0.4940794281
 H          3.1810407261       -3.1722885079        1.8852078774
 H          1.3092654091       -4.5208690547        2.7610114091
 H         -0.9789201542       -4.1504947327        1.9345462384
 H         -2.4959776351       -2.6598112118        0.8492375144
 C         -2.1388781130       -3.2792383588       -1.1619312196
 C         -2.5988999725       -4.6866965921       -0.9315844940
 C         -3.5635122923       -3.6554544253       -1.4331608649
 H         -3.8933169018       -3.7035969774       -2.4597125852
 H         -4.3144579452       -3.2845226156       -0.7507676237
 H         -2.2639216145       -5.4524541976       -1.6138977310
 H         -2.7060061462       -5.0215138920        0.0887020309
 H         -1.5050556907       -3.0891060240       -2.0183896492
