  62
        -98.93468295
 C         -2.4418501989       -1.2434895755        0.0727956935
 C         -2.4534962299        0.0041731215       -0.5912606573
 C         -3.7760164652        0.6209808268       -0.8041454836
 C         -4.8815341888       -0.0144714722       -0.3720682070
 C         -6.3472826856        0.3487753072       -0.4889556390
 C         -6.7743172641        1.7721201495       -0.8391533021
 C         -6.4387210844        2.8217981162        0.2193576149
 H         -6.7107598887        3.8028264635       -0.1761559693
 H         -7.0554781932        2.6359658406        1.1021895244
 C         -4.9818660820        2.8576638566        0.6747925124
 H         -4.8824357574        3.6563588047        1.4148470514
 H         -4.7305694721        1.9216349622        1.1778146495
 C         -3.9566502380        3.1172371374       -0.4277538323
 H         -2.9888349228        3.2804871069        0.0545481146
 H         -4.2192111932        4.0290370379       -0.9677285016
 C         -3.7744601883        1.9778854243       -1.4465185306
 H         -4.5180684934        2.0296888656       -2.2383512710
 H         -2.7909325411        2.0952278090       -1.9114124939
 H         -6.3666188250        2.0619961422       -1.8030216332
 H         -7.8620030369        1.7509352670       -0.9487922432
 H         -6.7631954070       -0.3311128631       -1.2407128532
 H         -6.7990549478        0.0647346994        0.4666038191
 O         -4.8175318392       -1.2269689216        0.2534500724
 C         -3.6142963749       -1.8623028807        0.5005840667
 O         -3.7193666559       -2.9495208576        1.1033966468
 H          1.5359178624       -1.3648523853       -0.1319023786
 C          1.1334436324       -0.8613063444        0.7300119471
 C         -0.1898620955       -1.0428457744        1.0995550628
 C         -0.6656855082       -0.3785325385        2.2274165331
 C          0.1552529573        0.4669338030        2.9469896928
 C          1.4680175241        0.6676216616        2.5578628669
 C          1.9597627717       -0.0054078549        1.4461776903
 N          3.3085405300        0.1419617810        1.0706535524
 S          3.7330268249        0.2485629951       -0.5602773862
 O          3.0654854381        1.3690864545       -1.1853956249
 O          3.5549921054       -1.0377010053       -1.1832416753
 C          5.4753227604        0.5913552428       -0.3883410292
 C          5.9320739539        1.8904182251       -0.5036690975
 C          7.2853376998        2.1426483802       -0.3405059715
 C          8.1536112054        1.0976289499       -0.0633507620
 C          7.6805008517       -0.2015206666        0.0485108349
 C          6.3290481443       -0.4603942494       -0.1145600108
 H          5.9170036200       -1.4534824583       -0.0452403153
 H          8.3590833028       -1.0117629388        0.2612538751
 H          9.2061224463        1.2964784001        0.0630951600
 H          7.6563817125        3.1509017447       -0.4305125812
 H          5.2216865268        2.6696873848       -0.7291419337
 H          3.7623536988        0.8861330940        1.5848383090
 H          2.1064712901        1.3379238176        3.1135316107
 H         -0.2311836911        0.9822990253        3.8136904035
 H         -1.6953557490       -0.5278821580        2.5247240246
 C         -1.1257663899       -1.9501630542        0.3382595701
 H         -1.3661874109       -2.8113432306        0.9797695551
 C         -0.5410317056       -2.4622442600       -0.9616299480
 C          0.3185252778       -3.6892081896       -0.9724246328
 C         -1.0656959472       -3.7386915318       -1.5441936041
 H         -1.1818840282       -3.8069298402       -2.6154508369
 H         -1.8325392515       -4.2568983226       -0.9865565822
 H          1.1602912307       -3.7188338904       -1.6481550249
 H          0.4937015727       -4.1831779963       -0.0285673326
 H         -0.2943043587       -1.6619073401       -1.6515095461
 O         -1.4093635444        0.5820135646       -0.9950406782
