  62
        -98.94414419
 C          2.5267033033        1.1527809000       -0.0758875246
 C          3.2222413737        0.3859384082        0.8885559577
 C          4.0140065162       -0.7333285328        0.3665932048
 C          4.0500248290       -0.9641731258       -0.9588072027
 C          4.8291122139       -2.0526461754       -1.6462514256
 C          4.1069638266       -3.4064410388       -1.6861364725
 C          4.0343880679       -4.1443685602       -0.3486982946
 H          3.6973745731       -5.1609309190       -0.5607303110
 H          5.0339982592       -4.2156892693        0.0809496987
 C          3.0782179327       -3.5115172591        0.6721850342
 H          2.4010790217       -2.8243391067        0.1586255571
 H          2.4595852814       -4.2899367845        1.1250746377
 C          3.7719876081       -2.7643080244        1.8115774377
 H          4.3527007808       -3.4686465307        2.4112243152
 H          3.0027027661       -2.3303671229        2.4563282646
 C          4.6996191151       -1.6315734298        1.3516166105
 H          5.6119131777       -2.0440190317        0.9215990755
 H          4.9637756616       -1.0293867644        2.2244136317
 H          4.6416248939       -4.0402782832       -2.3971179683
 H          3.0968377799       -3.2519861906       -2.0725759964
 H          4.9890076950       -1.7180217489       -2.6733514107
 H          5.7994860615       -2.1702316619       -1.1634058730
 O          3.3715323897       -0.1994089597       -1.8543701979
 C          2.5728469383        0.8570740514       -1.4386113505
 O          1.9748956240        1.4409141490       -2.3609018415
 O          3.1787331957        0.6220384580        2.1270582718
 C          1.6638196295        2.3111273224        0.3890400380
 C          0.2167787559        2.0542161265        0.0439306123
 C         -0.6126507954        3.0032515583       -0.5379807641
 C         -1.9350216264        2.7017402455       -0.8165344835
 C         -2.4590228451        1.4574787491       -0.5201030943
 C         -1.6428465413        0.5047162807        0.0763752739
 C         -0.3205568616        0.8108988960        0.3565380578
 H          0.3135596701        0.0673569608        0.8252790655
 N         -2.1653347493       -0.7662429294        0.3780618690
 S         -3.5768616001       -0.8373008114        1.2879194034
 O         -3.7025356421        0.3102890420        2.1563811981
 O         -3.5454086727       -2.1318439142        1.9329978417
 C         -4.8744818214       -0.8272369148        0.0694354138
 C         -5.8568659119        0.1423475918        0.1171725358
 C         -6.8616706412        0.1251718526       -0.8377612576
 C         -6.8662645785       -0.8561225209       -1.8172090162
 C         -5.8736565215       -1.8244528637       -1.8493821845
 C         -4.8670979703       -1.8137472688       -0.8971096284
 H         -4.0801213740       -2.5493509599       -0.8844706483
 H         -5.8804850802       -2.5860031615       -2.6125137040
 H         -7.6481279304       -0.8669047343       -2.5600798665
 H         -7.6344944815        0.8765387046       -0.8142865114
 H         -5.8089491634        0.8884648933        0.8942439601
 H         -1.4786417214       -1.4061943371        0.7505143799
 H         -3.4858707289        1.2177237414       -0.7425208318
 H         -2.5658118660        3.4473158340       -1.2758862106
 H         -0.2232099109        3.9786484716       -0.7783181157
 H          1.7512609549        2.3170694341        1.4864856876
 C          2.1962832175        3.6230019663       -0.1468749742
 C          1.9821350042        4.8935718518        0.6185437230
 C          3.3460946621        4.2764917543        0.5574835398
 H          4.1074509895        4.7597132185       -0.0361242165
 H          3.7280834134        3.7875486135        1.4419972319
 H          1.8090536665        5.8051994142        0.0668920114
 H          1.4390984510        4.8308852888        1.5495658584
 H          2.1832463969        3.6659031406       -1.2299819618
