  62
        -98.94345202
 C         -1.9584867390       -0.8563134067        0.0181674810
 C         -2.2489312576        0.0986004151        1.0197774532
 C         -2.5061030505        1.4630698825        0.5490671083
 C         -2.4126617041        1.7437790901       -0.7635611910
 C         -2.6069808706        3.0959140410       -1.3950945768
 C         -4.0735563071        3.4551490600       -1.6714588679
 C         -4.9055947338        3.7927159169       -0.4336957265
 H         -4.3884675589        4.5523586853        0.1531748844
 H         -5.8404987922        4.2324349580       -0.7864873517
 C         -5.2330625468        2.5862542931        0.4570231734
 H         -5.0678485093        1.6636093107       -0.1039706409
 H         -6.2902106390        2.6110691223        0.7304540310
 C         -4.4310321997        2.5223700805        1.7568443232
 H         -4.7165450808        1.6133874868        2.2923163465
 H         -4.6834051270        3.3780502895        2.3869725013
 C         -2.9095663895        2.4951646373        1.5586386395
 H         -2.5493449554        3.4796477596        1.2595959420
 H         -2.4411333747        2.2277152487        2.5094983684
 H         -4.5394828983        2.6264773163       -2.2093638321
 H         -4.0755928682        4.3246994817       -2.3326223851
 H         -2.0707042757        3.0711796401       -2.3462000328
 H         -2.1534884163        3.8606311878       -0.7635531322
 O         -2.1030560693        0.8027405365       -1.6945896839
 C         -1.8718619004       -0.5154188873       -1.3314756775
 O         -1.6074289330       -1.2715789558       -2.2862822719
 O         -2.2884215341       -0.1773747022        2.2512345246
 C         -1.6612107264       -2.2853535776        0.4263452745
 C         -0.2685755001       -2.6893383808        0.0042547560
 C          0.0554626597       -3.9883990444       -0.3675211240
 C          1.3545440315       -4.3125435236       -0.7190329278
 C          2.3522928411       -3.3563100252       -0.7113616285
 C          2.0370692893       -2.0506955851       -0.3471928747
 C          0.7405502825       -1.7352911556        0.0225053913
 H          0.5116311741       -0.7216979975        0.3190525735
 N          3.0177693655       -1.0469360291       -0.3873595243
 S          2.8052290974        0.4099086720        0.4224731292
 O          2.5464041766        0.1789074199        1.8275110027
 O          1.8357594330        1.2074179126       -0.2876482874
 C          4.4314379897        1.1096399930        0.2106875731
 C          4.7513614179        1.6760418421       -1.0089398304
 C          6.0216324483        2.1984847894       -1.1926916342
 C          6.9462188217        2.1459779003       -0.1598547732
 C          6.6104603323        1.5761492085        1.0588831960
 C          5.3417521362        1.0507235403        1.2487834773
 H          5.0319217000        0.6056981653        2.1805910835
 H          7.3300317624        1.5393453433        1.8607478502
 H          7.9336675722        2.5544995946       -0.3054106016
 H          6.2849213341        2.6442937793       -2.1382824059
 H          3.9962919641        1.7014097634       -1.7776014665
 H          3.9631333388       -1.3963171442       -0.3216201045
 H          3.3624429034       -3.6090202733       -0.9940858116
 H          1.5926677342       -5.3260188228       -1.0042415667
 H         -0.7104992846       -4.7464884891       -0.3832752515
 H         -1.6941473368       -2.2870194360        1.5275418074
 C         -2.7350123509       -3.2201027836       -0.0945642640
 C         -3.1562459709       -4.4185463860        0.7009098381
 C         -4.0690560813       -3.2360094444        0.5879720818
 H         -4.9582936086       -3.3218293514       -0.0181909585
 H         -4.1884089765       -2.5961149248        1.4504031521
 H         -3.4226610483       -5.3205859216        0.1708958598
 H         -2.6665925374       -4.5881613645        1.6480694149
 H         -2.7242910277       -3.2973700536       -1.1760640819
