  62
        -98.94332308
 C          2.5963813826        0.0738789789       -0.1049300196
 C          2.3799756116        1.1386545598       -1.0105143467
 C          1.9752411630        2.4189613317       -0.4180565041
 C          1.8114290517        2.5031882564        0.9147870346
 C          1.4028920585        3.7461259326        1.6511140977
 C         -0.1169252654        3.8287392181        1.8412267794
 C         -0.9202965990        3.5985629423        0.5611998229
 H         -0.8158256072        2.5525282304        0.2633076116
 H         -1.9724908736        3.7505819867        0.8147124097
 C         -0.5404095145        4.5162240848       -0.6091766804
 H         -1.4579612196        4.8689639779       -1.0849858865
 H         -0.0115909992        5.3938645393       -0.2351883957
 C          0.2960367719        3.8461574961       -1.7010786989
 H          0.2843552396        4.4918800987       -2.5834261090
 H         -0.1670592077        2.8963400259       -1.9812642052
 C          1.7653142599        3.5788236910       -1.3505756186
 H          2.2871386870        3.3162781695       -2.2756524631
 H          2.2188486764        4.4861984044       -0.9462923025
 H         -0.3564870239        4.8110354092        2.2543756540
 H         -0.4179782410        3.0689798475        2.5667519585
 H          1.7572817662        4.6161750281        1.1008743205
 H          1.8797510061        3.7300903269        2.6330516466
 O          1.9941071792        1.4497631067        1.7511116520
 C          2.3567409532        0.2044003666        1.2633724360
 O          2.4516872966       -0.6806949156        2.1357758081
 O          2.5247568744        1.0232064316       -2.2593192109
 C          2.9814203792       -1.2913166745       -0.6536737261
 C          1.8313923934       -2.2316778103       -0.3919901637
 C          1.9357322552       -3.4346990651        0.2923517143
 C          0.8025384424       -4.1751158180        0.5879610172
 C         -0.4543936693       -3.7303797931        0.2188388361
 C         -0.5614254016       -2.5465512846       -0.4950365597
 C          0.5717949649       -1.8198866554       -0.8097797453
 H          0.4738801508       -0.8839325703       -1.3466921628
 N         -1.8559171455       -2.0315102103       -0.8139861900
 S         -2.2885492231       -0.9290478030        0.4046780090
 O         -1.4763298008        0.2650351845        0.3087189105
 O         -2.2604190901       -1.6328536847        1.6616137350
 C         -3.9752889603       -0.5543625274       -0.0375982732
 C         -4.9184277384       -1.5557395799        0.0927342812
 C         -6.2295689539       -1.2909259873       -0.2679941536
 C         -6.5734551191       -0.0365240874       -0.7506298148
 C         -5.6155419099        0.9578243412       -0.8756321456
 C         -4.3011560066        0.6985600446       -0.5182954340
 H         -3.5228261796        1.4413474610       -0.5949060966
 H         -5.8848020202        1.9325857211       -1.2494679066
 H         -7.5949583139        0.1679552970       -1.0299033861
 H         -6.9776435303       -2.0611675264       -0.1719896100
 H         -4.6041048444       -2.5110154719        0.4785886151
 H         -1.8227305290       -1.5019856779       -1.6779629464
 H         -1.3467275575       -4.2717088634        0.4864698769
 H          0.9000809951       -5.0999631463        1.1359954562
 H          2.9026343346       -3.7808727217        0.6195535920
 H          3.0789089654       -1.1535129387       -1.7407269841
 C          4.3055040878       -1.7627291033       -0.0959634047
 C          5.1288688464       -2.7535947851       -0.8621001384
 C          5.5725654750       -1.3257611485       -0.7659140469
 H          6.4255445585       -1.0889711239       -0.1481271763
 H          5.4805876163       -0.6995273998       -1.6412851878
 H          5.6817243795       -3.4993083387       -0.3114608496
 H          4.7393513118       -3.1004939397       -1.8071134055
 H          4.3053664168       -1.8204239361        0.9864241892
