  62
        -98.94526191
 C          1.8056974000        1.4541196197        0.0998392207
 C          1.5578188500        0.0774178197       -0.1217026299
 C          2.5971959599       -0.8419269105        0.3651401399
 C          3.6846010698       -0.3445165308        0.9817186603
 C          4.8393831997       -1.1654245110        1.4768006802
 C          5.9226690899       -1.3101052007        0.3987933703
 C          5.3839721700       -1.7463753001       -0.9636908300
 H          4.7499909501       -0.9531043700       -1.3662681098
 H          6.2399454101       -1.8449416899       -1.6349171599
 C          4.5953721500       -3.0632240501       -0.9426037606
 H          4.8219160698       -3.6155372004       -0.0299060107
 H          4.9214293601       -3.6795528898       -1.7831220007
 C          3.0801643700       -2.8962422400       -1.0720362307
 H          2.8543064601       -2.2652085597       -1.9350125605
 H          2.6465413800       -3.8810835799       -1.2640999811
 C          2.3662551698       -2.3113276804        0.1529548794
 H          1.2895313399       -2.4166575003       -0.0070077008
 H          2.6429708597       -2.8773170107        1.0446662592
 H          6.4212709099       -0.3456197906        0.2770878007
 H          6.6628355498       -2.0323277108        0.7482486901
 H          4.4781629296       -2.1471128911        1.7770288197
 H          5.2695935996       -0.6651219113        2.3460563304
 O          3.8789660998        0.9838432192        1.1872725008
 C          2.9469110900        1.9135167894        0.7571628310
 O          3.2406042700        3.0978887893        1.0182877315
 O          0.5284698001       -0.3640003000       -0.6943465502
 C          0.7844276201        2.4869882099       -0.3462556591
 C         -0.5281529600        2.1716049897        0.3273780506
 C         -0.5875054602        2.2172600192        1.7179608806
 C         -1.7460902303        1.8757843490        2.3883277303
 C         -2.8700963902        1.4730961293        1.6872945300
 C         -2.8193540900        1.4207938398        0.3014121400
 C         -1.6582449999        1.7814810000       -0.3711300397
 H         -1.6371884397        1.7324986104       -1.4481672997
 N         -3.9538115799        1.0085967301       -0.4243956804
 S         -4.6518831200       -0.4661544700       -0.0506455310
 O         -5.5635523399       -0.7332436695       -1.1403291012
 O         -5.2387043202       -0.3909106504        1.2637905390
 C         -3.3266269201       -1.6586230700       -0.0608104312
 C         -2.6260364003       -1.9079534605        1.1014700088
 C         -1.5863285703       -2.8226097705        1.0709570386
 C         -1.2673300002       -3.4679438501       -0.1131655916
 C         -1.9743781400       -3.1990727797       -1.2742053716
 C         -3.0120443200       -2.2827069596       -1.2510592314
 H         -3.5938128098       -2.0532975193       -2.1295890414
 H         -1.7172005499       -3.6974249093       -2.1951470117
 H         -0.4630413402       -4.1870540402       -0.1311739917
 H         -1.0260955505       -3.0258153209        1.9698774086
 H         -2.9076024904       -1.3938959808        2.0058803389
 H         -3.8294871398        1.0761430505       -1.4247664003
 H         -3.7782874203        1.1888506092        2.1937543797
 H         -1.7758689704        1.9184286386        3.4668470103
 H          0.2961017798        2.5163016989        2.2660638208
 H          1.1428589201        3.4555763997        0.0286739113
 C          0.7088152804        2.5448007604       -1.8571260391
 C          0.1522970205        3.7621138307       -2.5311586087
 C          1.6215832005        3.4741504406       -2.5964853186
 H          2.0418914206        3.1454126010       -3.5352008787
 H          2.2920659505        4.0847259304       -2.0093448983
 H         -0.4345155293        3.6352074010       -3.4284760089
 H         -0.1779094195        4.5740152305       -1.9009925485
 H          0.5164170504        1.5773344606       -2.3064808295
