  62
        -98.93894827
 C          1.8777798800        0.5608023115       -0.0651628077
 C          2.9442395435        0.6324331305        0.8671558314
 C          4.1263795833       -0.2143826349        0.6210750544
 C          4.1310277765       -1.0131693542       -0.4618873388
 C          5.2229301688       -1.9309110927       -0.9437280863
 C          6.3828000830       -1.1743979307       -1.6108345110
 C          6.8433486025        0.0781628676       -0.8700688422
 H          7.5910665408        0.5757284264       -1.4933320779
 H          6.0002896193        0.7635352326       -0.7665843332
 C          7.4681184422       -0.1690527126        0.5009892293
 H          8.3292565997       -0.8315547507        0.3883896969
 H          7.8356588630        0.7928309454        0.8675770582
 C          6.5378865245       -0.7567028588        1.5646366330
 H          7.0358407080       -0.6407958865        2.5317579979
 H          6.3967392890       -1.8242095317        1.4177589368
 C          5.1865130045       -0.0593577555        1.6845114004
 H          5.3474518370        1.0188184607        1.7975754031
 H          4.7113575634       -0.3779732506        2.6202693849
 H          6.0577862311       -0.8702589998       -2.6088693846
 H          7.2221767829       -1.8624361609       -1.7250960968
 H          5.5824383242       -2.5460435794       -0.1240942464
 H          4.7702086114       -2.5951183247       -1.6834270829
 O          3.0827586924       -1.0550812536       -1.3303628722
 C          1.9423247430       -0.2909361475       -1.1667554225
 O          1.0916585082       -0.4753592262       -2.0624574722
 O          2.9184972171        1.3899080596        1.8742541545
 C          0.6777040839        1.4523405318        0.2053867532
 C         -0.4591691340        0.6861707035        0.8385369578
 C         -0.9284563955        1.0194638172        2.1034515249
 C         -1.9907128246        0.3327902304        2.6663013535
 C         -2.6066976808       -0.6971533477        1.9790092130
 C         -2.1409872272       -1.0398843065        0.7158370899
 C         -1.0811567737       -0.3464561725        0.1509127845
 H         -0.7221414243       -0.6210285391       -0.8297854431
 N         -2.7706320294       -2.0783179410        0.0027384266
 S         -4.4328519573       -1.9459003770       -0.1651646647
 O         -5.0752526088       -2.4426291667        1.0265080619
 O         -4.7582825465       -2.6396330406       -1.3914348889
 C         -4.7327659311       -0.1943826389       -0.3267200753
 C         -4.1849111536        0.4593247654       -1.4127323259
 C         -4.3579426565        1.8286298920       -1.5269950745
 C         -5.0685537235        2.5183641642       -0.5566088869
 C         -5.6160068711        1.8467549632        0.5251160363
 C         -5.4456388584        0.4767824830        0.6454127027
 H         -5.8504053178       -0.0845257442        1.4715512356
 H         -6.1700144431        2.3854743792        1.2767540891
 H         -5.1956315343        3.5856417171       -0.6460116297
 H         -3.9341585907        2.3510474886       -2.3696740722
 H         -3.6383617452       -0.1054150376       -2.1513952610
 H         -2.3340934708       -2.2667693227       -0.8884210900
 H         -3.4352865558       -1.2444036645        2.3988260361
 H         -2.3431416226        0.6021262156        3.6500638930
 H         -0.4463799826        1.8158317819        2.6511332179
 H          1.0314273928        2.1892119486        0.9386597973
 C          0.1899157527        2.1936848787       -1.0252546488
 C         -0.6488408207        3.4219903737       -0.8463008981
 C          0.7593591174        3.5416762576       -1.3451295191
 H          0.9234030589        3.7981081476       -2.3810757770
 H          1.5070727104        3.9402841377       -0.6749518665
 H         -1.4563183762        3.5987555063       -1.5392955765
 H         -0.8579163579        3.7408722262        0.1632499514
 H         -0.0395109338        1.5410397771       -1.8572638623
