  62
        -98.93761526
 C         -1.1770988384       -0.8350452570        0.6220005275
 C         -1.9333423539       -0.6022800971       -0.5506203205
 C         -2.9528827116        0.4628677139       -0.4758251736
 C         -3.0652447232        1.2002346073        0.6434989875
 C         -3.9678234302        2.3677231376        0.9850924253
 C         -5.1873531182        2.6915864714        0.1258811958
 C         -6.2995440738        1.6442234406        0.1710172893
 H         -6.7521059129        1.6613130579        1.1656687523
 H         -7.0682104448        1.9325469146       -0.5492599039
 C         -5.8651063871        0.2086629347       -0.1134373357
 H         -6.7517394234       -0.4276805996       -0.0483754614
 H         -5.1725525742       -0.1246160799        0.6621727695
 C         -5.2267495795       -0.0226423434       -1.4817188105
 H         -5.1189646574       -1.1022811266       -1.6158865618
 H         -5.8917565974        0.3463940142       -2.2648137983
 C         -3.8375465425        0.6089763178       -1.6803474302
 H         -3.3353643729        0.0770452836       -2.4939778379
 H         -3.9139019445        1.6530885868       -1.9751456965
 H         -4.8844714719        2.8831562879       -0.8993999449
 H         -5.5993147643        3.6275472508        0.5132116989
 H         -4.2920185587        2.2008537803        2.0175227986
 H         -3.3146600600        3.2477471488        1.0062199033
 O         -2.2467503711        0.9996876033        1.7186387294
 C         -1.2906955148        0.0008193576        1.7333130122
 O         -0.6078388839       -0.0374496525        2.7774112798
 H          0.9810923510        0.3472970191       -0.1810813431
 C          1.3184475825       -0.4871613878       -0.7769301166
 C          0.8240436845       -1.7571655112       -0.5097103536
 C          1.2308733288       -2.8094066808       -1.3186456718
 C          2.1069535687       -2.5830364549       -2.3669294332
 C          2.6129180040       -1.3202556666       -2.6155646193
 C          2.2076026808       -0.2595904378       -1.8126472129
 N          2.6896310661        1.0412018058       -2.0222307141
 S          2.9133390410        2.0579500897       -0.7162775697
 O          1.6489206665        2.5750786779       -0.2534531199
 O          3.8578800152        3.0457387250       -1.1941763230
 C          3.6860573245        1.0444874633        0.5333435728
 C          3.0149472314        0.7150311177        1.6928696319
 C          3.6383963272       -0.1105821407        2.6158857096
 C          4.9151854565       -0.5883697953        2.3669212393
 C          5.5810160396       -0.2405990686        1.2010169005
 C          4.9618929036        0.5808799353        0.2740278846
 H          5.4514235510        0.8819191524       -0.6377998266
 H          6.5762830933       -0.6090161589        1.0120118972
 H          5.3930838979       -1.2326526755        3.0878553055
 H          3.1123259383       -0.3771379693        3.5190057754
 H          2.0190673134        1.0946036552        1.8641165592
 H          3.4267908499        1.1241273046       -2.7061471653
 H          3.3010085870       -1.1500950063       -3.4291564459
 H          2.4069822243       -3.4066686424       -2.9967583593
 H          0.8477066054       -3.8012923781       -1.1447826694
 C         -0.0945324363       -1.8982325189        0.6800454871
 H          0.4986179526       -1.6379239675        1.5734684498
 C         -0.6016505665       -3.3156450924        0.9011481766
 C         -1.9559189719       -3.5724885780        1.4907041999
 C         -1.6818059926       -3.9260719233        0.0613934121
 H         -1.5981904808       -4.9714482389       -0.1982982532
 H         -2.1136997563       -3.3138590504       -0.7135276114
 H         -2.0590620287       -4.3698384973        2.2116043130
 H         -2.5836472828       -2.7163913364        1.6935759188
 H          0.1918859845       -3.9807170324        1.2277060530
 O         -1.7757928391       -1.2418528776       -1.6223965311
