  62
        -98.94523933
 C         -2.4545433960        1.2037743511        0.0728911816
 C         -3.5364122875        0.8307041247       -0.7647024541
 C         -4.4325002119       -0.2031503689       -0.2376596602
 C         -4.1971985863       -0.7333638164        0.9762678831
 C         -5.0292813668       -1.7843816078        1.6596054605
 C         -4.6906886560       -3.2205825363        1.2368664532
 C         -5.1507483105       -3.6108016490       -0.1683662615
 H         -5.0471344136       -4.6946807648       -0.2489805558
 H         -6.2095336322       -3.3755371488       -0.2809222523
 C         -4.3512248790       -2.9534002135       -1.3020600706
 H         -3.4102761533       -2.5633345110       -0.9060710393
 H         -4.0935646827       -3.7068069282       -2.0498687995
 C         -5.0886986171       -1.8281045763       -2.0279718534
 H         -4.4173017068       -1.4102991170       -2.7822695609
 H         -5.9622116857       -2.2348546834       -2.5421579159
 C         -5.5481849834       -0.6827785519       -1.1164108139
 H         -6.3982016125       -0.9997953640       -0.5128377251
 H         -5.8575037185        0.1541462785       -1.7470625644
 H         -3.6105008420       -3.3636304671        1.3200770458
 H         -5.1702765954       -3.8921679895        1.9527896873
 H         -6.0867109533       -1.5900009787        1.4780241081
 H         -4.8357170651       -1.6861837936        2.7299917888
 O         -3.1519222313       -0.3446210841        1.7532908082
 C         -2.2455325975        0.6128694174        1.3189727533
 O         -1.3305319128        0.8453977357        2.1335878509
 O         -3.7448294047        1.3428253492       -1.8960776881
 C         -1.4791130172        2.2476052716       -0.4470715317
 C         -0.1696682991        1.5566290147       -0.7354497671
 C         -0.0201550854        0.8547183267       -1.9287294922
 C          1.1390115883        0.1502098645       -2.1924171884
 C          2.1699560568        0.1216664151       -1.2687266607
 C          2.0228241776        0.8031497550       -0.0688184856
 C          0.8665641395        1.5299623627        0.1842950011
 H          0.7608612330        2.0438199307        1.1265279672
 N          3.0579786917        0.7708666305        0.8816171603
 S          3.7496397195       -0.7137584177        1.2501512356
 O          2.8247623056       -1.8059260092        1.0514900814
 O          4.2892671245       -0.5597762706        2.5838486607
 C          5.1019176837       -0.8397042333        0.0962668484
 C          5.9937068511        0.2123324150        0.0196225605
 C          7.0561071821        0.1260272105       -0.8657702292
 C          7.2109121151       -1.0057918969       -1.6524032091
 C          6.3095772614       -2.0551578235       -1.5609922503
 C          5.2436749214       -1.9744024588       -0.6781547638
 H          4.5144447250       -2.7627012835       -0.5775925131
 H          6.4314043423       -2.9347796226       -2.1724898834
 H          8.0387537542       -1.0706396205       -2.3407195666
 H          7.7587547798        0.9402953900       -0.9398359440
 H          5.8392080197        1.0723878385        0.6493802313
 H          2.8363866200        1.2758205644        1.7280973108
 H          3.0717518022       -0.4361156017       -1.4614633281
 H          1.2421452972       -0.3857874485       -3.1237092117
 H         -0.8340131805        0.8582241713       -2.6404046684
 H         -1.9030634189        2.5885350493       -1.4011728401
 C         -1.3575190528        3.4354064455        0.4836340650
 C         -0.7112335751        4.6922660319       -0.0152400459
 C         -2.1893926059        4.6546080745        0.2268345276
 H         -2.5885187305        5.1919340278        1.0740758504
 H         -2.8481798340        4.6385713917       -0.6288722392
 H         -0.0930345688        5.2593959075        0.6637224475
 H         -0.3648301388        4.6997066916       -1.0374890740
 H         -1.1979056894        3.1576032514        1.5184533969
