  62
        -98.94024317
 C         -2.4294159966       -1.1575548955        0.0721765525
 C         -3.3556590023       -0.4829286171        0.9072762971
 C         -4.1912922550        0.5384142412        0.2623557588
 C         -4.0179642495        0.7961028022       -1.0466840233
 C         -4.7620787330        1.8443785934       -1.8210822255
 C         -4.0130917831        3.1841531457       -1.8045589288
 C         -3.5740315516        3.6287582298       -0.4093228456
 H         -2.8220392878        2.9311074933       -0.0326843081
 H         -3.0852297831        4.5996976871       -0.5154121296
 C         -4.7163250730        3.7403540305        0.6102290653
 H         -5.6735055515        3.7909564802        0.0901589251
 H         -4.5997904498        4.6730779491        1.1661564888
 C         -4.7597778912        2.6107307386        1.6411245082
 H         -3.7744617767        2.4951889701        2.1004751745
 H         -5.4560115405        2.8997391412        2.4329650974
 C         -5.2098487931        1.2419349821        1.1147273117
 H         -5.3771096148        0.5933681719        1.9797966825
 H         -6.1543969786        1.3476114176        0.5770932360
 H         -4.6589911413        3.9462505806       -2.2441228147
 H         -3.1223146240        3.0905803410       -2.4299544283
 H         -4.8580232970        1.5050717053       -2.8537801834
 H         -5.7559553062        1.9658889390       -1.3946929345
 O         -3.0957365105        0.1569220542       -1.8078988790
 C         -2.2678049806       -0.8242150536       -1.2739103081
 O         -1.4575666381       -1.2956251810       -2.0911350376
 H         -0.1435148455       -0.0120963242        1.1257898033
 C          0.4646567551       -0.7639316900        0.6358032288
 C         -0.1049674666       -1.9941709600        0.3281951040
 C          0.6856001703       -2.9499071392       -0.2945377672
 C          2.0039954851       -2.6697348852       -0.6100032866
 C          2.5607381842       -1.4392621918       -0.3163967723
 C          1.7809681670       -0.4761984000        0.3113165321
 N          2.3297356173        0.7863629323        0.5951614989
 S          3.8177425862        0.8622915465        1.3671086838
 O          4.0275864756       -0.2798559009        2.2265901934
 O          3.8422117698        2.1595547417        2.0073959362
 C          4.9974862196        0.8509131093        0.0342255682
 C          6.0236730074       -0.0734045930        0.0306127469
 C          6.9370065494       -0.0560541433       -1.0121203806
 C          6.8089826350        0.8805691470       -2.0262667816
 C          5.7739510713        1.8037147020       -2.0063330894
 C          4.8586018799        1.7929176530       -0.9661186894
 H          4.0418440474        2.4934497462       -0.9128848971
 H          5.6769436573        2.5302032179       -2.7970495902
 H          7.5196931937        0.8913474639       -2.8374520462
 H          7.7422663671       -0.7726974614       -1.0295785746
 H          6.0793884515       -0.7870815901        0.8370857076
 H          1.6761430581        1.4309095088        1.0152203902
 H          3.5843694289       -1.2166188433       -0.5693459995
 H          2.6050715276       -3.4200263853       -1.1006200860
 H          0.2649769329       -3.9073424329       -0.5534406609
 C         -1.5474630974       -2.2155275884        0.7105995032
 H         -1.6373880849       -2.0253539553        1.7941164385
 C         -2.0211406504       -3.6440439795        0.4881061031
 C         -3.4672328807       -3.9488005785        0.2383927183
 C         -2.4607956241       -4.1469976310       -0.8530299847
 H         -2.2009153847       -5.1582146164       -1.1302004924
 H         -2.4469025934       -3.4509433288       -1.6765408310
 H         -4.1492569014       -3.1144220929        0.1606367284
 H         -3.8962325263       -4.8198536811        0.7106351828
 H         -1.4878206942       -4.3474707427        1.1204913633
 O         -3.4738206650       -0.7207092065        2.1399357622
