  62
        -98.93860325
 C         -2.6256529509       -0.2311871788       -0.4391427202
 C         -2.2482483111       -0.8910163194        0.7555810195
 C         -1.6078832315       -2.2015197695        0.5895957689
 C         -1.4251861317       -2.7009210490       -0.6455551413
 C         -0.7572348221       -4.0044870091       -0.9902089619
 C          0.7491445879       -4.0619219297       -0.6651769219
 C          1.0736217177       -4.7251665404        0.6796091078
 H          0.2492457375       -5.3852967403        0.9530517875
 H          1.9545403875       -5.3581604607        0.5546055275
 C          1.3686727480       -3.7700948011        1.8403513282
 H          1.3150665179       -4.3449965815        2.7679658480
 H          2.3903072182       -3.3970567613        1.7396476784
 C          0.4505764184       -2.5522301608        1.9559418188
 H          0.7171808587       -1.8166997306        1.1934058191
 H          0.6342492486       -2.0759818413        2.9218017290
 C         -1.0536677317       -2.8613291003        1.8188493586
 H         -1.2278397120       -3.9360752502        1.7913904682
 H         -1.5962850115       -2.4423392705        2.6689187488
 H          1.2272536777       -4.6394091195       -1.4583361022
 H          1.1605244982       -3.0522241899       -0.7058626415
 H         -1.2765311423       -4.8189349792       -0.4803020022
 H         -0.8999200521       -4.1349812286       -2.0648125419
 O         -1.8565121315       -2.0602289884       -1.7673534510
 C         -2.4174465211       -0.7965157683       -1.6947175204
 O         -2.6962154509       -0.2908906877       -2.8042169402
 H         -0.4850337605        0.9590303807       -0.6519326397
 C         -0.7311082002        1.7644307004        0.0245866707
 C         -2.0648095001        2.0584466207        0.2799298009
 C         -2.3568524498        3.1231964605        1.1217316013
 C         -1.3334669495        3.8514313899        1.7057607616
 C         -0.0088805496        3.5252454195        1.4834271715
 C          0.2939592300        2.4576147398        0.6429649310
 N          1.6253043399        2.0491804195        0.4601026108
 S          2.0729446295        0.9509409399       -0.7282256297
 O          1.8360987697        1.5026620005       -2.0461887694
 O          1.4772763791       -0.3312022601       -0.4515297403
 C          3.8228720995        0.8710076391       -0.4013897897
 C          4.7031662497        1.6084409992       -1.1696771894
 C          6.0575387097        1.5495667386       -0.8795611195
 C          6.5052927395        0.7599562880        0.1687291602
 C          5.6095965592        0.0238973480        0.9304904499
 C          4.2548168893        0.0782258085        0.6451282699
 H          3.5211065391       -0.4805965615        1.2032003197
 H          5.9608827991       -0.5910819525        1.7432255196
 H          7.5594346195        0.7154922876        0.3922469601
 H          6.7565878499        2.1178175787       -1.4716769692
 H          4.3095763299        2.2003206997       -1.9803766092
 H          2.3045678501        2.7866990292        0.5788084611
 H          0.7845334406        4.0784668291        1.9613714417
 H         -1.5733217492        4.6794985697        2.3554466120
 H         -3.3841150697        3.3786249207        1.3251715815
 C         -3.1230219904        1.2011422314       -0.3778402695
 H         -3.2359286403        1.5319483419       -1.4218396794
 C         -4.4693191404        1.2809535715        0.3116253205
 C         -5.4715152600        2.3181651620       -0.0948106690
 C         -5.6945573505        0.8802354322       -0.4518817196
 H         -6.4674670307        0.3310096823        0.0641499701
 H         -5.5572724006        0.5789909527       -1.4806484298
 H         -6.0973770799        2.7565199319        0.6678720712
 H         -5.1965277498        2.9974134123       -0.8877884787
 H         -4.4146721004        0.9984518710        1.3564225504
 O         -2.4251241609       -0.4046190999        1.9033999298
