  62
        -98.93878864
 C         -1.4825323166       -1.3037978957       -0.7308439472
 C         -2.7563694445       -1.1026694605       -0.1404072750
 C         -3.4782682299        0.1270915241       -0.5010723972
 C         -2.9122788839        0.9894973168       -1.3622103510
 C         -3.4683829714        2.2805913293       -1.9101050384
 C         -4.2087883845        3.2045635873       -0.9356402074
 C         -3.6520461288        3.2139070357        0.4956120987
 H         -2.6853680150        2.7060856115        0.5276946405
 H         -3.4818914463        4.2474499787        0.8040037317
 C         -4.6025734498        2.5726361854        1.5096183268
 H         -5.6189532111        2.9146825602        1.3017377292
 H         -4.3360834606        2.9243784805        2.5093104633
 C         -4.5867278723        1.0452128703        1.5489653377
 H         -3.6352952886        0.6973829201        1.9621024082
 H         -5.3724347014        0.7183873141        2.2345641904
 C         -4.7907082189        0.3453016158        0.1951827828
 H         -5.1968958834       -0.6510137332        0.3900914890
 H         -5.4935793430        0.8911818599       -0.4294232138
 H         -5.2634050513        2.9343225096       -0.9050479967
 H         -4.1537619954        4.2112252273       -1.3537594448
 H         -2.6046942177        2.8061997834       -2.3250254184
 H         -4.1311023318        2.0374635860       -2.7461830154
 O         -1.6919622367        0.7555571926       -1.9154767643
 C         -0.9350344153       -0.3620394289       -1.5996759434
 O          0.1703993346       -0.3828284915       -2.1764125625
 H          1.1784834936       -0.6671050409       -0.0053129160
 C          1.0238153711       -1.2220313283        0.9045750956
 C          0.0880326853       -2.2473482694        0.9305450928
 C         -0.1006465796       -2.9551717406        2.1108211718
 C          0.6191297866       -2.6284614515        3.2465744793
 C          1.5163630772       -1.5772066814        3.2297000349
 C          1.7142797011       -0.8622501446        2.0516432865
 N          2.6167762667        0.2080054768        2.0203367517
 S          2.3791076403        1.5834982056        1.0869840717
 O          2.8947453873        2.6610063453        1.9092026407
 O          1.0077199021        1.7141188563        0.6588681480
 C          3.5001361109        1.3442728147       -0.2757337631
 C          4.8423572914        1.5628830418       -0.0246766803
 C          5.7593300361        1.3696544038       -1.0435732304
 C          5.3218386314        0.9608590072       -2.2949349344
 C          3.9732995613        0.7478520727       -2.5309597079
 C          3.0482653168        0.9404719102       -1.5146828484
 H          1.9948453504        0.7735913478       -1.6818644151
 H          3.6252598348        0.4294404770       -3.5008070044
 H          6.0339343627        0.8089200012       -3.0908188890
 H          6.8085300726        1.5375877401       -0.8612581556
 H          5.1358223594        1.8937982216        0.9577012831
 H          3.0173359335        0.4436871713        2.9163979955
 H          2.0579147683       -1.3024805780        4.1223078689
 H          0.4648436913       -3.1837591410        4.1593534579
 H         -0.8328901725       -3.7483399573        2.1411904156
 C         -0.7349201605       -2.5547436159       -0.2992204260
 H         -1.5145537739       -3.2710645137       -0.0043291078
 C          0.1164883028       -3.1914179245       -1.3777342641
 C          0.4514321070       -4.6480327092       -1.2701192079
 C         -0.5069693297       -4.1745436038       -2.3205330039
 H         -0.1879892905       -4.1699609734       -3.3517428163
 H         -1.5566689592       -4.3946975990       -2.1903840417
 H          1.4329597833       -4.9730475138       -1.5785705200
 H          0.0509296661       -5.1937955197       -0.4293296779
 H          0.8714247119       -2.5293123164       -1.7797413326
 O         -3.2798175900       -1.9336522852        0.6504884488
