  62
        -98.93511217
 C         -2.4288463509       -1.0731182095       -0.4459286794
 C         -3.2489289208       -0.4064026292        0.4992515405
 C         -3.6625104404        0.9753766809        0.1933374704
 C         -3.2588536702        1.5245432507       -0.9669331897
 C         -3.5054645099        2.9186306007       -1.4783704398
 C         -2.6106924896        3.9605835205       -0.7883583199
 C         -2.5076066998        3.8146386806        0.7277290101
 H         -1.7732563996        4.5438366905        1.0808407001
 H         -2.1110017800        2.8251427106        0.9660223703
 C         -3.8064453697        4.0470037610        1.4968112900
 H         -4.1727366395        5.0532559611        1.2816620699
 H         -3.5619755898        4.0027664511        2.5611993401
 C         -4.9363348500        3.0502594713        1.2278211201
 H         -5.4349714499        3.2664642713        0.2869406100
 H         -5.6836884500        3.1880866016        2.0145316900
 C         -4.5190987904        1.5838602212        1.2772878203
 H         -5.4230072705        0.9645309914        1.3220456403
 H         -3.9922214805        1.3922352912        2.2191604703
 H         -2.9836868894        4.9556557906       -1.0368784500
 H         -1.6012876696        3.8639396402       -1.1969758298
 H         -4.5546678298        3.1776668710       -1.3736268599
 H         -3.2677854098        2.9085173205       -2.5443830798
 O         -2.4849160004        0.8427415304       -1.8560412496
 C         -2.0268860307       -0.4400461197       -1.6210313994
 O         -1.2924755408       -0.8763071300       -2.5324855693
 O         -3.6242408810       -0.9471690990        1.5747824506
 C         -1.9700993213       -2.4741989696       -0.0744914192
 C         -0.6125944013       -2.4066634298        0.5849445609
 C         -0.4142696815       -2.8659552298        1.8812314409
 C          0.8213533485       -2.7417733900        2.4934875010
 C          1.8798224687       -2.1467017504        1.8306203510
 C          1.6890909589       -1.6844384204        0.5362109509
 C          0.4583010189       -1.8297028502       -0.0831095591
 H          0.3202478890       -1.4585691603       -1.0885323892
 N          2.7572620391       -1.0278262108       -0.1302618091
 S          2.9766977694        0.5718403892        0.3849903508
 O          2.8643774794        0.6124449394        1.8206301007
 O          2.0973886597        1.4543678494       -0.3555065794
 C          4.6679212095        0.8568715588       -0.0981620092
 C          5.6735880394        0.3626159386        0.7096934909
 C          6.9921071394        0.5472010382        0.3264996010
 C          7.2812143897        1.2176451680       -0.8528557691
 C          6.2607721798        1.7078315182       -1.6532894692
 C          4.9395156398        1.5251991686       -1.2756593092
 H          4.1142205299        1.8957180887       -1.8625795693
 H          6.4876791800        2.2306060780       -2.5685411692
 H          8.3082120797        1.3609527677       -1.1494686090
 H          7.7884584093        0.1689106081        0.9468433811
 H          5.4008393392       -0.1436701413        1.6206160510
 H          2.5840168291       -0.9891280708       -1.1277088591
 H          2.8371860487       -2.0146327005        2.3063987510
 H          0.9573615083       -3.1010949400        3.5021736010
 H         -1.2444394516       -3.3005239095        2.4187643909
 H         -2.6895064714       -2.8250262293        0.6776954608
 C         -1.9668510415       -3.4528689997       -1.2312961891
 C         -2.0295748019       -4.9210464296       -0.9391005790
 C         -3.2118713017       -4.2255389794       -1.5426624091
 H         -3.4530683217       -4.4145419694       -2.5777811791
 H         -4.0761093517       -4.0524448391       -0.9180462192
 H         -1.4563024420       -5.5928089198       -1.5590627289
 H         -2.0935718220       -5.2226537895        0.0952898311
 H         -1.3612433414       -3.1293380899       -2.0675365391
