  62
        -98.93950875
 C         -1.3943404415       -0.8513106958       -0.1371519476
 C         -2.5045078834       -0.8135947417        0.7443310217
 C         -3.4565710895        0.2955329573        0.5792542615
 C         -3.2296676225        1.2156321257       -0.3734645851
 C         -4.0279523640        2.4540493283       -0.6976380469
 C         -5.5577398646        2.3366325418       -0.6863978604
 C         -6.1060518782        0.9793864627       -1.1508082876
 H         -6.8602358141        1.1465818370       -1.9219843159
 H         -5.3061844953        0.3879956684       -1.5996217524
 C         -6.7583905876        0.1806447252       -0.0199311175
 H         -7.3681536593        0.8587150890        0.5810754852
 H         -7.4296864868       -0.5625197331       -0.4568429803
 C         -5.7907515734       -0.5669311671        0.8965535200
 H         -6.3692586406       -0.9972125431        1.7175401908
 H         -5.3355280097       -1.4000147611        0.3543845587
 C         -4.6517420061        0.2791814671        1.4887265555
 H         -4.3193833872       -0.2034316857        2.4119504786
 H         -4.9895030710        1.2850175649        1.7268614832
 H         -5.9318539146        2.5483697687        0.3142352003
 H         -5.9381306338        3.1261392106       -1.3369078065
 H         -3.6906327591        2.7563627852       -1.6923048949
 H         -3.7219992065        3.2433059248       -0.0040473880
 O         -2.1509757437        1.1460315885       -1.2004277840
 C         -1.2068382715        0.1328709338       -1.1074360445
 O         -0.2897428945        0.2368377410       -1.9448064315
 O         -2.6908474498       -1.6797234687        1.6416313146
 C         -0.4188211085       -1.9950240377        0.0615938205
 C          0.7021583900       -1.6379356693        1.0124271292
 C          1.2420716635       -2.6075881763        1.8512254587
 C          2.2809182124       -2.2976534740        2.7089631969
 C          2.8085592929       -1.0192689407        2.7411063565
 C          2.2742673087       -0.0409245273        1.9106421945
 C          1.2276539913       -0.3561120886        1.0542823232
 H          0.8137560091        0.4192548420        0.4298440473
 N          2.7725845964        1.2692796667        1.9402140491
 S          2.9096785448        2.1581925941        0.5283176981
 O          3.8387468714        3.2146605801        0.8740402738
 O          1.6105996490        2.5890563233        0.0795217862
 C          3.6858583919        1.0428715443       -0.6261809084
 C          2.9617637471        0.4386379145       -1.6323725649
 C          3.6086702555       -0.4632641245       -2.4651091273
 C          4.9525160510       -0.7441320051       -2.2793863736
 C          5.6665770953       -0.1225048824       -1.2656023473
 C          5.0284219741        0.7772872375       -0.4293107683
 H          5.5492160939        1.2930714960        0.3611646309
 H          6.7134111018       -0.3381886527       -1.1249724872
 H          5.4458342012       -1.4487866466       -2.9301576305
 H          3.0493021179       -0.9411314385       -3.2540419027
 H          1.9142173999        0.6664364329       -1.7571388315
 H          3.5751300460        1.4020069703        2.5381008667
 H          3.6173767220       -0.7731304268        3.4116917837
 H          2.6860208727       -3.0576506074        3.3591933967
 H          0.8310634872       -3.6053772649        1.8393030062
 H         -1.0053029836       -2.7960116016        0.5341857437
 C          0.1728355493       -2.5314961068       -1.2284997382
 C          0.5384749869       -3.9801201821       -1.3372224553
 C         -0.6425354207       -3.4466283638       -2.0900438880
 H         -0.5756267011       -3.3377703056       -3.1618678743
 H         -1.6309709301       -3.7092207361       -1.7413091128
 H          1.4254054328       -4.2445497612       -1.8915901887
 H          0.3441873960       -4.6166751419       -0.4878734701
 H          0.8069187904       -1.8140294444       -1.7321984105
