  62
        -98.94417078
 C         -2.6384708160       -1.0940351624        0.1950510071
 C         -2.7441356121       -0.2893440383       -0.9653422552
 C         -3.5586290575        0.9268281360       -0.8267129133
 C         -4.1446599103        1.1983990870        0.3536796609
 C         -4.9483655549        2.4312404583        0.6484691222
 C         -4.0606544481        3.5503452737        1.2112920656
 C         -2.7920825941        3.8015833171        0.3957290310
 H         -2.2580725446        4.6273297515        0.8711689982
 H         -2.1461534368        2.9225580014        0.4607893403
 C         -3.0426738357        4.1359201237       -1.0814929409
 H         -4.0792755202        4.4451296791       -1.2196060224
 H         -2.4116791749        4.9823919160       -1.3601956944
 C         -2.7191784946        2.9991172400       -2.0529180474
 H         -1.7121675498        2.6222197731       -1.8556937214
 H         -2.7227814088        3.4075877508       -3.0668244218
 C         -3.6890097792        1.8108267390       -2.0349899167
 H         -4.7144328632        2.1698582991       -2.1422650354
 H         -3.4529736280        1.1774347976       -2.8949677817
 H         -4.6504531723        4.4673368117        1.2613405012
 H         -3.7660475719        3.2804775974        2.2283667336
 H         -5.4383561606        2.7657573666       -0.2636974408
 H         -5.7098846334        2.1774011196        1.3877304261
 O         -4.0243444814        0.3969797968        1.4440511805
 C         -3.2586228024       -0.7572282226        1.3969327742
 O         -3.2045489205       -1.3843451768        2.4756228884
 O         -2.1860970675       -0.5679218217       -2.0575588779
 C         -1.8033413513       -2.3603650555        0.1579382419
 C         -0.3756213364       -2.0364103350       -0.2135411137
 C          0.3708830343       -2.7971658249       -1.1035002668
 C          1.6823897311       -2.4570487493       -1.3880169297
 C          2.2773169100       -1.3589101042       -0.7954737017
 C          1.5451722390       -0.5990939499        0.1077427222
 C          0.2345752341       -0.9466168994        0.3956785412
 H         -0.3330142397       -0.3552695676        1.1053610087
 N          2.1384569499        0.5248350388        0.7109430430
 S          3.6205050613        0.3158860173        1.4749551249
 O          3.7721134781       -1.0316450807        1.9733860553
 O          3.6911410442        1.3761657770        2.4568589554
 C          4.8140156755        0.6319569659        0.1925475030
 C          4.7406438108        1.8341898265       -0.4833458636
 C          5.6688542723        2.1001059017       -1.4772387605
 C          6.6509033373        1.1665608152       -1.7740119415
 C          6.7131936778       -0.0341127298       -1.0835579506
 C          5.7866290383       -0.3072380565       -0.0891677249
 H          5.7916122610       -1.2293037461        0.4698740264
 H          7.4776441533       -0.7581063799       -1.3154827128
 H          7.3718863544        1.3764930776       -2.5482257447
 H          5.6231867803        3.0324965411       -2.0165991269
 H          3.9643112493        2.5332427064       -0.2202240173
 H          1.5090561500        1.0427173872        1.3070267001
 H          3.2953729867       -1.0864837269       -1.0210309775
 H          2.2482463513       -3.0544441300       -2.0863727582
 H         -0.0754016453       -3.6556092951       -1.5778098496
 H         -1.8022600857       -2.7553686689        1.1852129804
 C         -2.4485013435       -3.3824811425       -0.7553127668
 C         -2.2962719909       -4.8474135513       -0.4802997870
 C         -3.6127194231       -4.1728662198       -0.2411332135
 H         -4.4318129703       -4.3821343955       -0.9125690616
 H         -3.9203591489       -3.9930384688        0.7791451115
 H         -2.2148712507       -5.5239609872       -1.3176590117
 H         -1.7130431919       -5.1373926007        0.3807954387
 H         -2.4835538555       -3.0530018482       -1.7872168160
