  62
        -98.93596640
 C         -2.5350588372       -0.2026541384        0.5759461810
 C         -2.2083832376        0.4254752600       -0.6509163816
 C         -1.9537565497        1.8777925970       -0.5992624709
 C         -1.9538361832        2.5084368592        0.5862513894
 C         -1.7491519518        3.9725151273        0.8918611441
 C         -0.6952113656        4.7378545882        0.0846172837
 C          0.5652495775        3.9341159450       -0.2668347139
 H          1.4460946943        4.5015733025        0.0403464710
 H          0.5813396225        2.9879827369        0.2790796610
 C          0.6853052689        3.6406709477       -1.7634895065
 H          0.4048797920        4.5338288080       -2.3271993886
 H          1.7299955810        3.4184537601       -1.9925004652
 C         -0.1455305973        2.4532504522       -2.2443800528
 H          0.2462834532        1.5357097577       -1.7980927080
 H         -0.0264019552        2.3681915330       -3.3275683774
 C         -1.6463144183        2.5292123659       -1.9176506127
 H         -2.0066856046        3.5551967763       -1.9505011211
 H         -2.1840917369        1.9473378743       -2.6713937301
 H         -1.1436668119        5.1166064058       -0.8328122408
 H         -0.4174202522        5.6084211951        0.6818185746
 H         -2.7152139709        4.4762571531        0.7858047295
 H         -1.4879065214        4.0031583847        1.9529777101
 O         -2.2033966360        1.8491529432        1.7559534421
 C         -2.4859756444        0.4962332134        1.7817983554
 O         -2.6749668069        0.0366868149        2.9285823226
 H         -0.2047433221       -1.3992351886        1.1503004383
 C         -0.3596045933       -2.0878223805        0.3300032191
 C         -1.6551562866       -2.4034290469       -0.0607168170
 C         -1.8352314205       -3.3001306262       -1.1042415549
 C         -0.7379851537       -3.8368699527       -1.7566222100
 C          0.5485274512       -3.4763948640       -1.4016106962
 C          0.7375045636       -2.5880650944       -0.3479779148
 N          2.0257541045       -2.1918844923        0.0532442642
 S          2.2003381860       -0.6169080093        0.6445376410
 O          1.9568295994       -0.6346101121        2.0672768005
 O          1.4113331592        0.3089862480       -0.1316226129
 C          3.9368929548       -0.3463965742        0.3420102587
 C          4.3225934845        0.3754470139       -0.7714354982
 C          5.6745507950        0.5575805665       -1.0173020669
 C          6.6122157142        0.0142598942       -0.1520393271
 C          6.2097236603       -0.7073853045        0.9621831974
 C          4.8596030551       -0.8915658580        1.2148023473
 H          4.4980756094       -1.4350396817        2.0721774502
 H          6.9415859558       -1.1254414435        1.6342502221
 H          7.6635448706        0.1567901807       -0.3457244570
 H          5.9895915192        1.1213142936       -1.8804982503
 H          3.5557977302        0.7834081723       -1.4107306433
 H          2.7376730453       -2.4187632975       -0.6277865687
 H          1.3997213980       -3.8711028552       -1.9353310358
 H         -0.8889893810       -4.5275452282       -2.5725066536
 H         -2.8313898063       -3.5532446227       -1.4282069810
 C         -2.7730457883       -1.7023916873        0.6711017714
 H         -2.6651157719       -1.9330488706        1.7448803521
 C         -4.1639806446       -2.1643502493        0.2676960503
 C         -5.3413839814       -1.2432938907        0.3809979218
 C         -4.8542323282       -1.6743373471       -0.9680684663
 H         -5.4569119579       -2.3758213419       -1.5265062491
 H         -4.3293120754       -0.9603523134       -1.5815264711
 H         -5.1483122301       -0.2272108189        0.6946613692
 H         -6.2740895742       -1.6447863847        0.7479076650
 H         -4.3383850356       -3.1998949635        0.5443322112
 O         -2.1537861921       -0.1779372355       -1.7530220490
