  62
        -98.93987251
 C         -2.3455416496       -0.9864280390        0.4581801724
 C         -2.6135627018       -0.0172133985       -0.5398548468
 C         -3.5946975571        1.0169821649       -0.1777198571
 C         -4.1385602899        1.0330614509        1.0517308386
 C         -5.1201866327        2.0451133008        1.5769351646
 C         -6.5803064146        1.7521347401        1.2057399294
 C         -6.9403013698        1.9962572334       -0.2602769773
 H         -8.0291794621        1.9633997452       -0.3326849677
 H         -6.6252980232        2.9996030390       -0.5486365161
 C         -6.3500418509        0.9689222960       -1.2362873046
 H         -6.0299836719        0.0830001251       -0.6828661177
 H         -7.1231820060        0.6459131090       -1.9371347900
 C         -5.1744648284        1.4853372065       -2.0659946181
 H         -4.8122423664        0.6675256281       -2.6944540371
 H         -5.5147574481        2.2885377090       -2.7234489893
 C         -3.9932893543        2.0028309844       -1.2347145898
 H         -4.2425683310        2.9636349004       -0.7848184901
 H         -3.1387568046        2.1396272730       -1.9022435731
 H         -6.8068065518        0.7164197060        1.4691462480
 H         -7.2087853545        2.3971756542        1.8239948645
 H         -4.8462783975        3.0394197679        1.2229457347
 H         -5.0313886770        2.0262275131        2.6652449610
 O         -3.8261635856        0.1074777620        1.9968449781
 C         -2.9503923662       -0.9270118459        1.7181011085
 O         -2.7896518136       -1.7256316043        2.6622697591
 O         -2.0699793247        0.0116484082       -1.6752190371
 C         -1.3960083451       -2.1564628012        0.2532043690
 C          0.0302700617       -1.7620225591        0.5390504434
 C          0.8231388254       -2.5117003633        1.3993657402
 C          2.1373213750       -2.1495483544        1.6398493547
 C          2.6856110444       -1.0354168091        1.0301162991
 C          1.9016250247       -0.2798095952        0.1679305516
 C          0.5850056107       -0.6453713860       -0.0712505065
 H         -0.0174525795       -0.0627841249       -0.7529117847
 N          2.4458017623        0.8602187374       -0.4517207057
 S          3.8816739922        0.6649676585       -1.3026184893
 O          3.8949753986        1.7290418322       -2.2821797878
 O          4.0133335780       -0.6806154239       -1.8120803627
 C          5.1425172830        0.9836479030       -0.0864561905
 C          6.1329677990        0.0486979712        0.1421597022
 C          7.1105531667        0.3255023779        1.0854111595
 C          7.0805863053        1.5257696185        1.7786825661
 C          6.0799927169        2.4551972880        1.5356559724
 C          5.1007871074        2.1853743346        0.5931143855
 H          4.3084364830        2.8809655821        0.3719547913
 H          6.0598856624        3.3874649924        2.0768050780
 H          7.8417116938        1.7386832869        2.5126328616
 H          7.8895846721       -0.3951990989        1.2754011611
 H          6.1123384830       -0.8731629134       -0.4169142224
 H          1.7725536866        1.3644975527       -1.0116250777
 H          3.7082582058       -0.7488036993        1.2137359133
 H          2.7415582480       -2.7404569101        2.3110364275
 H          0.3995422585       -3.3772986608        1.8875042987
 H         -1.6911472788       -2.8991893370        1.0108676461
 C         -1.5635098281       -2.8145014546       -1.1115423591
 C         -0.5245934176       -2.7861371658       -2.1885851297
 C         -0.7918683809       -4.0573203970       -1.4436020097
 H         -1.2987992901       -4.8629354351       -1.9526999962
 H         -0.0456776732       -4.3813763819       -0.7337200040
 H         -0.8666566830       -2.6966054665       -3.2086972513
 H          0.4048005788       -2.2704413515       -2.0009235255
 H         -2.5951482395       -2.7832364904       -1.4479347641
