  62
        -98.94371203
 C         -1.2235077739       -0.9244602545        0.2615500440
 C         -1.6642929607        0.2386402867        0.9418698891
 C         -2.6710063849        1.0550409900        0.2528629691
 C         -3.0486634287        0.7149911324       -0.9924447715
 C         -4.0974103436        1.4273707875       -1.7953488843
 C         -5.4875360608        0.8199089937       -1.5593923240
 C         -5.8418137522        0.6416301243       -0.0830140234
 H         -6.8538724853        0.2338021975       -0.0386726382
 H         -5.1750387693       -0.1044492181        0.3552896476
 C         -5.7727737855        1.9313450657        0.7466055667
 H         -5.7902802045        2.7983592272        0.0852468199
 H         -6.6603979220        1.9883660128        1.3801139531
 C         -4.5582160505        2.0253786581        1.6718624024
 H         -4.4851266814        1.1157888548        2.2733507783
 H         -4.7178995451        2.8605738838        2.3588630312
 C         -3.2085292993        2.2553228797        0.9799931426
 H         -3.2789556710        3.1124767396        0.3065469957
 H         -2.4723232446        2.4900217446        1.7546710422
 H         -6.2293688426        1.4610859464       -2.0389161016
 H         -5.5226175987       -0.1598923385       -2.0413967700
 H         -4.0980666489        2.4821011277       -1.5260541798
 H         -3.8418619218        1.3341213131       -2.8524046460
 O         -2.5388631866       -0.3555632626       -1.6510012106
 C         -1.6113746979       -1.1989568176       -1.0508473638
 O         -1.2258899719       -2.1257238278       -1.7873637866
 H          1.0081410168        0.0828180713       -0.4733399288
 C          1.5257805835       -0.8590198065       -0.5693698494
 C          1.0184313569       -1.9826810598        0.0698246921
 C          1.6720513022       -3.1947767572       -0.1082974291
 C          2.7976270843       -3.2687885064       -0.9115076936
 C          3.3074529035       -2.1435122807       -1.5324871725
 C          2.6577771918       -0.9255840420       -1.3628194724
 N          3.1302830808        0.2430596368       -1.9759799535
 S          2.8982086018        1.7266987848       -1.2482889059
 O          1.5307148103        2.1594089430       -1.4010123774
 O          3.8979346895        2.5784483373       -1.8577427727
 C          3.2952659816        1.4705289992        0.4726287128
 C          2.3198243540        1.5698732548        1.4430231780
 C          2.6589399305        1.3192003319        2.7634268526
 C          3.9619496285        0.9787991632        3.0902007462
 C          4.9348039232        0.8944939246        2.1052522752
 C          4.6002092303        1.1395317905        0.7839636978
 H          5.3306223109        1.0924364048       -0.0071597865
 H          5.9488600943        0.6348737886        2.3629142133
 H          4.2193174397        0.7806640497        4.1186877254
 H          1.8939865536        1.3830100051        3.5210752942
 H          1.3105364102        1.8300674391        1.1632933456
 H          4.0272581101        0.1655899965       -2.4307895040
 H          4.1870453564       -2.2050392136       -2.1544415770
 H          3.2901371480       -4.2190950738       -1.0508869352
 H          1.2921566380       -4.0860773458        0.3629174657
 C         -0.1883358800       -1.7903662244        0.9551697084
 H          0.1378032766       -1.1744452743        1.8117503297
 C         -0.7307210801       -3.0857981834        1.5422293864
 C         -2.1991761312       -3.2873331079        1.7654274947
 C         -1.4844138177       -4.0857786236        0.7190478664
 H         -1.3141879975       -5.1361330320        0.9058158940
 H         -1.6570296386       -3.8451978198       -0.3178660104
 H         -2.5181226234       -3.7843201585        2.6695070137
 H         -2.8682199269       -2.5045004894        1.4374328594
 H         -0.0771194014       -3.4879962891        2.3100567303
 O         -1.2276139517        0.5815281877        2.0737871602
