  62
        -98.93965014
 C         -2.4485623402       -0.4268043785       -0.1392289359
 C         -3.6471879469       -0.9429512817        0.4100185780
 C         -4.6991964724        0.0406416658        0.6974493169
 C         -4.4606575261        1.3443892551        0.4643567501
 C         -5.4540036969        2.4488300916        0.6782551050
 C         -6.2684669910        2.7201302590       -0.5942430354
 C         -6.8579408258        1.4609886341       -1.2296867765
 H         -7.4371219125        1.7765376238       -2.1001916562
 H         -6.0434491620        0.8320629149       -1.5962878589
 C         -7.7515304464        0.6361767187       -0.2929075758
 H         -8.6536966717        0.3458756272       -0.8354570196
 H         -8.0657333896        1.2478437863        0.5535429726
 C         -7.1095213047       -0.6525385713        0.2243319781
 H         -6.7084005424       -1.2247950316       -0.6159883509
 H         -7.8914736541       -1.2589435080        0.6891499211
 C         -5.9938500991       -0.4734740096        1.2618291569
 H         -6.3441940384        0.1697641639        2.0716801076
 H         -5.7674497950       -1.4588400664        1.6797630049
 H         -5.6159057657        3.2002674194       -1.3270132964
 H         -7.0722546112        3.4160360640       -0.3472957659
 H         -4.9074117434        3.3536318132        0.9493651035
 H         -6.1183134061        2.1786175968        1.4967789912
 O         -3.2877744900        1.8049918007       -0.0397213790
 C         -2.2556491587        0.9364546647       -0.3630813976
 O         -1.2461741221        1.4944534979       -0.8326273340
 O         -3.8258917312       -2.1670610879        0.6522019384
 C         -1.3182802058       -1.3908853357       -0.4560902075
 C         -0.1341459188       -1.0600130377        0.4182401777
 C         -0.2584844503       -1.2228156875        1.7958814154
 C          0.7871466997       -0.9103351088        2.6425638191
 C          1.9798960905       -0.4210728356        2.1373078613
 C          2.1157269711       -0.2589500598        0.7662748288
 C          1.0658814925       -0.5850811878       -0.0841737271
 H          1.1864564516       -0.4460947700       -1.1473770160
 N          3.3208458152        0.2590207512        0.2388501183
 S          4.7223526512       -0.6567742232        0.4658075745
 O          4.6918691648       -1.8320186624       -0.3806485774
 O          4.9024618246       -0.8961215224        1.8739017658
 C          5.9566507303        0.4849197337       -0.1228875344
 C          6.4912093563        0.3245986822       -1.3863642985
 C          7.4313687866        1.2379459263       -1.8373702754
 C          7.8156543280        2.2917764349       -1.0224893339
 C          7.2692819791        2.4395237077        0.2439470413
 C          6.3300441606        1.5292168109        0.7009095473
 H          5.8846470976        1.6009072873        1.6792714011
 H          7.5719271428        3.2597487165        0.8748153053
 H          8.5472573441        3.0013184951       -1.3756744381
 H          7.8594053054        1.1244189525       -2.8204258227
 H          6.1692439770       -0.5140019010       -1.9827556426
 H          3.2284562119        0.4457832591       -0.7520084505
 H          2.8047188666       -0.1805923062        2.7871428987
 H          0.6734981389       -1.0427398553        3.7081625115
 H         -1.1929126506       -1.5963232397        2.1928037808
 H         -1.6902214366       -2.3828012038       -0.1618608381
 C         -1.0093633536       -1.4068605871       -1.9377603081
 C         -0.2586725515       -2.5624975468       -2.5274921233
 C         -1.7177371373       -2.3878534147       -2.8209156919
 H         -2.0104959436       -2.0718009193       -3.8109295890
 H         -2.4187077755       -3.0635105572       -2.3531602358
 H          0.4511832730       -2.3699317358       -3.3178238180
 H          0.0356078786       -3.3581812249       -1.8596008272
 H         -0.8250356766       -0.4176821315       -2.3413470917
