  62
        -98.94717616
 C          1.6111258039        1.5684092083       -0.2471952401
 C          2.7707940245        1.2280949094        0.4960859029
 C          3.5523825215        0.0958683455       -0.0107410472
 C          3.1597633997       -0.5375688943       -1.1306634868
 C          3.8661604800       -1.6919274365       -1.7890033472
 C          3.5173556190       -3.0657030218       -1.1998518250
 C          4.0861625026       -3.3419125809        0.1922493336
 H          3.9389154065       -4.4049912672        0.3931182548
 H          5.1613398901       -3.1600869331        0.1861751092
 C          3.4311794496       -2.5290869006        1.3181926697
 H          2.4821373940       -2.1152791670        0.9693670334
 H          3.2038154134       -3.1878417503        2.1591225020
 C          4.2963353320       -1.3902313169        1.8584637766
 H          3.7259399482       -0.8609049668        2.6258995590
 H          5.1929111992       -1.8004034809        2.3285739583
 C          4.7257692068       -0.3673615173        0.7980538373
 H          5.4919831759       -0.7938714729        0.1510068281
 H          5.1439769802        0.5031961017        1.3091579418
 H          2.4310184941       -3.1712727226       -1.1760888171
 H          3.9088365815       -3.8211434972       -1.8851663981
 H          3.5665872480       -1.6823652132       -2.8394653082
 H          4.9441481032       -1.5364954894       -1.7360984004
 O          2.0525726919       -0.1687014748       -1.8265256740
 C          1.2364120800        0.8685244729       -1.3937618621
 O          0.2403933012        1.0555776136       -2.1188660009
 O          3.1343996551        1.8443741246        1.5319483250
 C          0.7318484800        2.6878280948        0.2885333341
 C         -0.5153654872        2.0395511213        0.8351185467
 C         -0.5059958590        1.5125406330        2.1238097403
 C         -1.5958326752        0.8152157594        2.6110142304
 C         -2.7085129541        0.6063431868        1.8144194060
 C         -2.7197128265        1.1172214795        0.5235607586
 C         -1.6409260188        1.8496258470        0.0483228415
 H         -1.6614203781        2.2296050875       -0.9605122539
 N         -3.8185243056        0.8481220529       -0.3148215568
 S         -4.2918011815       -0.7573933274       -0.3928496428
 O         -4.8230739208       -0.9420467359       -1.7254844928
 O         -5.2109783944       -1.0335607036        0.6845514142
 C         -2.8076616933       -1.7263389219       -0.1656753533
 C         -1.7287389389       -1.4995756598       -0.9963761181
 C         -0.5760672594       -2.2462371115       -0.8142822767
 C         -0.5189585103       -3.2024494237        0.1873296352
 C         -1.6131225333       -3.4216828220        1.0099375972
 C         -2.7681231767       -2.6772862358        0.8344203807
 H         -3.6389948059       -2.8101663986        1.4556340369
 H         -1.5665168453       -4.1663161293        1.7881151318
 H          0.3827708837       -3.7784134883        0.3288202009
 H          0.2713975163       -2.0586095220       -1.4555351553
 H         -1.7737711064       -0.7432702876       -1.7642389064
 H         -3.7098897687        1.2282394018       -1.2445272976
 H         -3.5612614775        0.0486037124        2.1667150222
 H         -1.5762281507        0.4191433865        3.6147464804
 H          0.3770219896        1.6427971791        2.7333435363
 H          1.2913415006        3.1217396993        1.1276022775
 C          0.4689134989        3.7716740723       -0.7344751819
 C         -0.1104142554        5.0772970193       -0.2806614389
 C          1.3177271524        5.0061933351       -0.7283440473
 H          1.5851850273        5.4513125432       -1.6750386655
 H          2.0924457027        5.0775289182        0.0208796706
 H         -0.8258170285        5.5747422823       -0.9175983766
 H         -0.3059396237        5.1943023397        0.7745357988
 H          0.1635931814        3.3917501941       -1.7014642928
