  62
        -98.93353118
 C          2.4762445659        0.9082393947        0.2570409136
 C          3.0139620592       -0.1282222420        1.0577588671
 C          3.2837329260       -1.4159050346        0.3958422828
 C          2.9605880116       -1.5685390992       -0.9017597801
 C          3.1358360141       -2.7426394532       -1.8421669822
 C          3.4622701428       -4.1329428968       -1.3030052287
 C          2.3418862189       -4.7819491763       -0.4911820279
 H          1.5165050207       -5.0200175254       -1.1670217965
 H          2.7181835077       -5.7209657624       -0.0794194443
 C          1.7727962559       -3.9346315839        0.6443111872
 H          1.2947176318       -3.0424006732        0.2322976137
 H          0.9873094311       -4.5174756615        1.1335305488
 C          2.7782596674       -3.5178564604        1.7164116844
 H          3.2836119832       -4.4024924101        2.1085621656
 H          2.2151179884       -3.0628850715        2.5358007944
 C          3.8436043114       -2.5018342860        1.2693171745
 H          4.6793864831       -2.9946489174        0.7786841986
 H          4.2320344842       -2.0062523011        2.1638369335
 H          4.3840865907       -4.1080846955       -0.7293770743
 H          3.6475891485       -4.7674585896       -2.1739076840
 H          2.2100648799       -2.7919050913       -2.4250614704
 H          3.9252597237       -2.4475822422       -2.5425260892
 O          2.4089991714       -0.5519720924       -1.6264100243
 C          2.1312455145        0.6905421844       -1.0772243281
 O          1.5945257489        1.4826144166       -1.8739844127
 O          3.2573759157        0.0136798802        2.2867328473
 C          2.1478824126        2.2285232747        0.9337820206
 C          0.7241255218        2.6030495405        0.6068733642
 C          0.3479158932        3.7871012275       -0.0114492023
 C         -0.9781735503        4.0184318721       -0.3368910505
 C         -1.9536745565        3.0795715588       -0.0565295393
 C         -1.5876963942        1.8977644596        0.5717019026
 C         -0.2646533248        1.6739214081        0.9085965101
 H          0.0166034906        0.7399829735        1.3829301408
 N         -2.5805092761        0.9153161731        0.8333800649
 S         -2.9630932660       -0.0196245583       -0.5274047712
 O         -2.0214012872       -1.1152624067       -0.6473076950
 O         -3.0981864662        0.8508984414       -1.6658266807
 C         -4.5636816603       -0.6499668632       -0.0581996819
 C         -4.6870709284       -1.9443480571        0.4068315661
 C         -5.9370304004       -2.4005365264        0.7962721745
 C         -7.0347013278       -1.5573223785        0.7181930035
 C         -6.8944429894       -0.2591063092        0.2500014929
 C         -5.6480474438        0.2019128564       -0.1414974169
 H         -5.4915172332        1.1984248947       -0.5195546486
 H         -7.7506333683        0.3931374761        0.1887764684
 H         -8.0058378761       -1.9147359081        1.0221810482
 H         -6.0484499954       -3.4097566116        1.1589074197
 H         -3.8073217678       -2.5667580032        0.4439420908
 H         -2.2674269634        0.2678687453        1.5468076726
 H         -2.9824841699        3.2351902884       -0.3358365583
 H         -1.2518953235        4.9386078396       -0.8305265394
 H          1.0978069828        4.5164466570       -0.2706509358
 H          2.2001684846        1.9993101833        2.0118460442
 C          3.1500671717        3.3435768188        0.6827368199
 C          4.5787910839        3.0340160286        0.3521360723
 C          3.6880604587        3.6527410347       -0.6809960775
 H          3.8522023218        4.6880088864       -0.9425095163
 H          3.3463010392        3.0435927805       -1.5027448920
 H          5.3523646699        3.6409333047        0.7979592476
 H          4.8500931506        1.9947184308        0.2350791873
 H          2.9839243039        4.1899873949        1.3421454502
