  62
        -98.94120105
 C          1.5133862728        1.5773429562       -0.2193497405
 C          2.6838002107        1.2649862640        0.5144429557
 C          3.5088054416        0.1463516194        0.0208220295
 C          3.1098865384       -0.5108759929       -1.0836612478
 C          3.7612851240       -1.7015600747       -1.7339150676
 C          3.4910314680       -3.0184622121       -0.9816431789
 C          3.4955902031       -2.9084543049        0.5418367111
 H          3.1270353633       -3.8548756923        0.9462614493
 H          2.7962886824       -2.1285940701        0.8497611152
 C          4.8629880357       -2.6438956087        1.1681330189
 H          5.5209909248       -3.4903446984        0.9569771584
 H          4.7246141147       -2.5932120514        2.2511459882
 C          5.5697341268       -1.3672484438        0.7138251955
 H          5.9394969678       -1.4740574565       -0.3023445129
 H          6.4489344822       -1.2370431574        1.3520059758
 C          4.7452490880       -0.0904338895        0.8530716043
 H          5.4028552598        0.7678128687        0.6665615658
 H          4.4230551023        0.0129528708        1.8952137234
 H          4.2317579599       -3.7549468764       -1.2968676572
 H          2.5070734333       -3.3832776121       -1.2848124455
 H          3.3419845189       -1.7823250175       -2.7392802519
 H          4.8276776268       -1.5216279048       -1.8373887402
 O          1.9746889104       -0.1768481368       -1.7584357383
 C          1.1501852626        0.8598830040       -1.3578898731
 O          0.1586090634        1.0275611499       -2.0938908807
 H         -1.7485642148        2.1809261372       -0.9695267388
 C         -1.7369347054        1.8152805335        0.0447086309
 C         -0.6262818414        2.0330379882        0.8453633662
 C         -0.6297843163        1.5257161273        2.1418958568
 C         -1.7167669995        0.8191709802        2.6224257457
 C         -2.8125261224        0.5796130336        1.8111789777
 C         -2.8107294784        1.0711181760        0.5127876639
 N         -3.8893799684        0.7702140928       -0.3408502298
 S         -4.3331528031       -0.8446785220       -0.4030821031
 O         -4.8359695478       -1.0583024546       -1.7424867843
 O         -5.2686414462       -1.1201233676        0.6605185887
 C         -2.8374716291       -1.7840870168       -0.1323126076
 C         -2.8034677216       -2.7211394086        0.8809309907
 C         -1.6386305231       -3.4402128752        1.0937361503
 C         -0.5294006025       -3.2090268611        0.2950778229
 C         -0.5811915749       -2.2680584535       -0.7209933858
 C         -1.7437947749       -1.5474041949       -0.9409456682
 H         -1.7854928963       -0.8021529349       -1.7198192121
 H          0.2793744393       -2.0730136614       -1.3414688394
 H          0.3816647278       -3.7613569005        0.4648012982
 H         -1.5966801061       -4.1735635762        1.8828377386
 H         -3.6860321599       -2.8627270137        1.4834508986
 H         -3.7672565141        1.1354965458       -1.2748739798
 H         -3.6612941625        0.0122576528        2.1576643539
 H         -1.7073581306        0.4387206897        3.6323228388
 H          0.2412677891        1.6783400123        2.7633176950
 C          0.6196538596        2.6899130997        0.3062775455
 H          1.1685405432        3.1333903849        1.1471761360
 C          0.3555966957        3.7652813307       -0.7255572571
 C         -0.2310687692        5.0717669920       -0.2839747320
 C          1.1993515274        5.0032781643       -0.7248075496
 H          1.4693518519        5.4426199228       -1.6734941451
 H          1.9704592324        5.0828286361        0.0273419487
 H         -0.4318127167        5.1957079605        0.7694330809
 H         -0.9456017329        5.5614114952       -0.9278784462
 H          0.0563911331        3.3768750699       -1.6910995917
 O          3.0287694163        1.8934099620        1.5506089601
