  62
        -98.94387552
 C          1.8008592117        1.1805714265        0.3525346792
 C          2.0124879248        0.2272268388       -0.6721914315
 C          3.4110643022        0.0321170099       -1.0836358613
 C          4.3794131115        0.7620546156       -0.5005363952
 C          5.8467780466        0.6236852431       -0.7836377370
 C          6.5016683963       -0.3876255325        0.1676961341
 C          5.7510608419       -1.7155305769        0.2690556675
 H          6.3197268386       -2.3599801198        0.9429154748
 H          4.7783010867       -1.5423244506        0.7352387523
 C          5.5461350464       -2.4328856481       -1.0725750281
 H          5.7815471715       -3.4914350972       -0.9437024013
 H          6.2387217103       -2.0352790708       -1.8152922542
 C          4.1195563574       -2.3584355389       -1.6205595216
 H          3.4111976578       -2.6683158571       -0.8474767995
 H          4.0336842816       -3.0715532343       -2.4450018741
 C          3.6798037155       -0.9887336371       -2.1530903018
 H          4.4174936735       -0.6169290144       -2.8672640407
 H          2.7304346871       -1.1277463520       -2.6790805124
 H          6.5489569509        0.0555532647        1.1650559498
 H          7.5227482080       -0.5701666035       -0.1719123664
 H          6.3176241812        1.5981070054       -0.6435932541
 H          5.9843031384        0.3092185275       -1.8162432622
 O          4.1328053065        1.6862962170        0.4626432471
 C          2.8452138297        1.9076631112        0.9236028020
 O          2.7617694624        2.7615617554        1.8293266347
 O          1.0851379434       -0.4275679561       -1.2163396612
 C          0.3973283452        1.4392783515        0.8703142234
 C         -0.2031830859        0.1608750740        1.4026987531
 C          0.5285042335       -0.5889140774        2.3209500878
 C          0.0150928799       -1.7565278201        2.8494463716
 C         -1.2396859519       -2.2032901142        2.4724746701
 C         -1.9820335707       -1.4609646440        1.5632630080
 C         -1.4656542106       -0.2818253403        1.0410268668
 H         -2.0574192549        0.2786088557        0.3377317181
 N         -3.2760657249       -1.8634109916        1.1988008192
 S         -3.7673918041       -1.7929772498       -0.4023312536
 O         -4.9187742020       -2.6707756504       -0.4531091843
 O         -2.6939344725       -2.1055356719       -1.3146681493
 C         -4.3242773368       -0.1188347117       -0.6351472191
 C         -5.2236243652        0.4096219797        0.2699550496
 C         -5.6937976308        1.6976239739        0.0705604141
 C         -5.2658601424        2.4279016042       -1.0280621356
 C         -4.3644911799        1.8813499398       -1.9292743208
 C         -3.8869644551        0.5946236887       -1.7332420025
 H         -3.1748657294        0.1342697009       -2.4003901311
 H         -4.0302823912        2.4505490112       -2.7824553362
 H         -5.6335926316        3.4300950928       -1.1828956325
 H         -6.3924943026        2.1280744875        0.7695328257
 H         -5.5369486338       -0.1914187480        1.1069263295
 H         -3.5831056940       -2.7239754983        1.6295189179
 H         -1.6407528715       -3.1191817290        2.8797461099
 H          0.5967118873       -2.3283477005        3.5571036277
 H          1.5105755611       -0.2406715882        2.6124898384
 H          0.5132993399        2.1339312294        1.7155412048
 C         -0.4465957601        2.1096844219       -0.1931011317
 C         -1.5579526259        3.0316107230        0.2073347796
 C         -0.3056264509        3.5867209259       -0.4000676722
 H         -0.3451617902        3.9712013109       -1.4080478506
 H          0.3889818635        4.1113930071        0.2399976737
 H         -2.4621106586        3.0369367884       -0.3820488872
 H         -1.7182689160        3.1862497178        1.2635179019
 H         -0.5804766151        1.4904530278       -1.0731477823
