  62
        -98.94088759
 C         -1.6480232428       -0.0966355697        0.7166107595
 C         -2.9139971452       -0.0714368912        1.3561919422
 C         -4.0485576715       -0.5639630676        0.5676414852
 C         -3.8476475877       -0.9931626447       -0.6912263926
 C         -4.8965354732       -1.5491322941       -1.6158275479
 C         -5.6941664690       -0.4782115185       -2.3724088139
 C         -6.6954904029        0.3070498461       -1.5244273107
 H         -7.3330582731        0.8634287005       -2.2144016712
 H         -7.3348612596       -0.3892884414       -0.9808665704
 C         -6.0534896204        1.2951058248       -0.5404073326
 H         -5.0156431479        1.4753995643       -0.8303704494
 H         -6.5722170343        2.2548079319       -0.5971015488
 C         -6.0883196337        0.8476945689        0.9209792918
 H         -7.1242781916        0.7919210764        1.2627462838
 H         -5.5758436925        1.6023329982        1.5232561945
 C         -5.4138405843       -0.5051773685        1.1835288788
 H         -5.2977824224       -0.6257669813        2.2634844103
 H         -6.0370330671       -1.3156767668        0.8058869710
 H         -6.2440372530       -0.9840263553       -3.1694506672
 H         -4.9914790351        0.2145137347       -2.8412856704
 H         -5.5811834065       -2.1843156900       -1.0530159556
 H         -4.3702383963       -2.1662510132       -2.3471359912
 O         -2.6225817272       -0.9845848529       -1.2769111720
 C         -1.4967631881       -0.5171560792       -0.6062211999
 O         -0.4613051855       -0.5397417761       -1.2948112044
 O         -3.0875261110        0.3446528325        2.5327908545
 C         -0.4567320076        0.4247343593        1.5005045365
 C          0.3238116097        1.4053704394        0.6642931695
 C         -0.2828004569        2.6037069054        0.2957754158
 C          0.3864546146        3.5214248111       -0.4894998565
 C          1.6796292875        3.2691386736       -0.9133146957
 C          2.2928359641        2.0757579490       -0.5529499369
 C          1.6146951464        1.1525991151        0.2309706151
 H          2.0986359497        0.2251047144        0.4854328647
 N          3.5875298795        1.7770868318       -0.9945574646
 S          4.6346943221        0.8770172773       -0.0614327697
 O          4.4843310924        1.1699124103        1.3457979745
 O          5.9422415957        1.1494449576       -0.6213784884
 C          4.2209587496       -0.8256535644       -0.3785668735
 C          4.4542529868       -1.7518771467        0.6189708381
 C          4.1868058667       -3.0888202428        0.3707139298
 C          3.6915237686       -3.4742757728       -0.8654134033
 C          3.4625741429       -2.5317425814       -1.8556503782
 C          3.7333520602       -1.1941013596       -1.6159129507
 H          3.5559580980       -0.4391958638       -2.3633491036
 H          3.0694831862       -2.8327087186       -2.8133594141
 H          3.4791954628       -4.5144693244       -1.0561133099
 H          4.3624119582       -3.8232210529        1.1408940966
 H          4.8272684819       -1.4066339481        1.5702878164
 H          4.0547731870        2.5040367570       -1.5148521048
 H          2.2061281678        3.9849564962       -1.5262247055
 H         -0.0980170388        4.4444706313       -0.7709724770
 H         -1.2933266870        2.8009265451        0.6279090894
 H         -0.9063655280        0.9804832616        2.3408267494
 C          0.4135347142       -0.6592584702        2.1177278805
 C         -0.1887882916       -1.9459272906        2.5949409581
 C          0.7309587980       -1.9425417342        1.4126267680
 H          1.7220240186       -2.3558042925        1.5307943711
 H          0.3140554321       -2.0923622289        0.4294838453
 H          0.1657188980       -2.3658225889        3.5241197467
 H         -1.2445981503       -2.0954615212        2.4216986725
 H          1.2028888967       -0.2371646296        2.7338623109
