  62
        -98.94049075
 C         -1.2843011869       -1.5907581147       -0.0028209452
 C         -2.2358998142       -1.1322729473        0.9341932700
 C         -3.1361838590       -0.0500197648        0.4918476462
 C         -2.9789037052        0.4561009709       -0.7456697991
 C         -3.8004875726        1.5313849926       -1.4055592234
 C         -3.4686837303        2.9546553431       -0.9175542116
 C         -3.0924936439        3.0631611523        0.5588392114
 H         -2.3076880672        2.3382156454        0.7837542940
 H         -2.6739757548        4.0585713613        0.7296204587
 C         -4.2551315201        2.8805217617        1.5319129773
 H         -3.8550420059        2.9462512867        2.5470809951
 H         -4.9605626565        3.7046274921        1.3997225606
 C         -5.0285589617        1.5700972429        1.3995157065
 H         -5.6029022064        1.5592869059        0.4773300519
 H         -5.7527204624        1.5339647041        2.2190308320
 C         -4.1814086563        0.3062990121        1.5206889514
 H         -4.8561974793       -0.5572162399        1.5771294841
 H         -3.6539763626        0.3234548854        2.4813684034
 H         -4.3226689925        3.6016700431       -1.1235352191
 H         -2.6233107368        3.3193135030       -1.5026970253
 H         -3.5914917385        1.4718071173       -2.4755130946
 H         -4.8548920178        1.3059521746       -1.2660817916
 O         -1.9938091179        0.0353050943       -1.5877160774
 C         -1.1387302094       -1.0010007785       -1.2583165515
 O         -0.3172095439       -1.2973992680       -2.1436243995
 O         -2.3398057996       -1.6108472835        2.0976710755
 C         -0.3925532032       -2.7633551192        0.3631270791
 C          1.0579746858       -2.3574637123        0.3001432515
 C          2.0216082644       -3.0551078632       -0.4149329638
 C          3.3341753974       -2.6139208365       -0.4402529639
 C          3.7160823385       -1.4797484388        0.2515835630
 C          2.7604084293       -0.7783419195        0.9764604712
 C          1.4467775795       -1.2184627543        0.9962887341
 H          0.7026929990       -0.6680168161        1.5594484187
 N          3.1422988682        0.3822623705        1.6857024241
 S          3.6757265668        1.6756329332        0.7631833676
 O          4.8926789007        1.2985003533        0.0920799764
 O          3.7676901935        2.7897954683        1.6790064760
 C          2.3754837591        1.9630184217       -0.4212899383
 C          2.3181601693        1.1898576468       -1.5636253402
 C          1.2653339984        1.3754880735       -2.4449624983
 C          0.2951305221        2.3262514035       -2.1696968577
 C          0.3687413448        3.0968193994       -1.0195586502
 C          1.4137556797        2.9095272211       -0.1303264325
 H          1.5087194924        3.4872481916        0.7753468061
 H         -0.3843077832        3.8391405517       -0.8084185979
 H         -0.5251893663        2.4585948491       -2.8576022322
 H          1.1931796405        0.7629032412       -3.3285927993
 H          3.0897882293        0.4604918527       -1.7484522212
 H          2.4262641339        0.7083747228        2.3201462639
 H          4.7301570271       -1.1151291463        0.2295846586
 H          4.0708982513       -3.1632388835       -1.0066033352
 H          1.7459158695       -3.9418598008       -0.9610543300
 H         -0.6350396550       -2.9997097157        1.4099731904
 C         -0.7298587130       -3.9633564701       -0.4966460989
 C         -0.4858325037       -5.3504299132        0.0156498351
 C         -1.8863859099       -4.8315320951       -0.1048719051
 H         -2.5204699541       -5.2287692704       -0.8832404380
 H         -2.4175555837       -4.5722827307        0.7994735076
 H         -0.1599707935       -6.1085135962       -0.6804121050
 H         -0.0662906996       -5.4510993193        1.0051624028
 H         -0.5850260354       -3.7731314336       -1.5541190627
