  62
        -98.94240767
 C         -1.5512274352        1.3730538096       -0.5368646613
 C         -1.4040054171        0.2203486875        0.2750843279
 C         -2.2331830115       -0.9324555359       -0.1087755598
 C         -2.9759619695       -0.8867046779       -1.2281753538
 C         -3.8501918334       -1.9901723334       -1.7589642284
 C         -5.2516341887       -2.0275308107       -1.1340683811
 C         -5.3052610836       -2.5223723525        0.3119213845
 H         -6.3556552673       -2.7026182711        0.5492145744
 H         -4.7865228571       -3.4786003219        0.3864433835
 C         -4.7285715819       -1.5391471084        1.3402255557
 H         -5.4104067428       -1.4604316283        2.1899745445
 H         -4.6601855012       -0.5440828935        0.8942520543
 C         -3.3581872150       -1.9310050954        1.8931096249
 H         -3.4449394524       -2.8633981399        2.4550347498
 H         -3.0337601123       -1.1501152152        2.5855430150
 C         -2.2684729606       -2.1029350238        0.8260639622
 H         -1.3000688927       -2.1468764096        1.3284542691
 H         -2.4269446845       -3.0289723929        0.2740264465
 H         -5.8640689908       -2.6932009094       -1.7467676557
 H         -5.6880966891       -1.0276029253       -1.1941926494
 H         -3.3591740245       -2.9523340542       -1.6108269610
 H         -3.9562394621       -1.8151046943       -2.8319146817
 O         -2.9958119099        0.2002816369       -2.0466745208
 C         -2.3136674485        1.3583499898       -1.7071133914
 O         -2.4461228343        2.2877142112       -2.5297017637
 O         -0.6336819978        0.1422974282        1.2640389492
 C         -0.8262438588        2.6682518254       -0.2148545308
 C          0.6089178857        2.3791897240        0.1513221129
 C          1.1971535600        2.7656827259        1.3476851901
 C          2.5217491163        2.4591439921        1.6079138067
 C          3.2846736204        1.7630105947        0.6893502094
 C          2.7024851655        1.3634023370       -0.5071399416
 C          1.3800178641        1.6809539988       -0.7706365019
 H          0.9273638175        1.3690428955       -1.7047301867
 N          3.4633267571        0.6427409254       -1.4479157084
 S          4.3057925511       -0.7012555051       -0.9116980489
 O          5.4661471566       -0.2696830210       -0.1733704237
 O          4.5657376130       -1.4780620923       -2.1034530824
 C          3.1874968287       -1.5782388698        0.1636255581
 C          3.3071467467       -1.4560467995        1.5325017012
 C          2.4048329359       -2.1235672309        2.3444856285
 C          1.4070837523       -2.8992956536        1.7771995379
 C          1.3000136658       -3.0118671806        0.3996433967
 C          2.1937722035       -2.3404577666       -0.4170425547
 H          2.1457918676       -2.4095111606       -1.4924896848
 H          0.5212032563       -3.6142868255       -0.0403215033
 H          0.7082380967       -3.4207607060        2.4126376659
 H          2.4804561656       -2.0340324580        3.4160913518
 H          4.1035428709       -0.8530853163        1.9361087159
 H          2.9517391743        0.4178577460       -2.2888625655
 H          4.3172961752        1.5180163407        0.8775807331
 H          2.9658496281        2.7642147356        2.5432435989
 H          0.6140402222        3.2871161953        2.0884134313
 H         -0.8211839823        3.2363276694       -1.1602560221
 C         -1.5465446891        3.5357300614        0.8075104477
 C         -3.0357889937        3.4682080047        0.9644640987
 C         -2.1438650384        2.9661135803        2.0576839913
 H         -2.0767140323        3.5438624491        2.9678932045
 H         -2.0617055869        1.9017274943        2.2087763356
 H         -3.5766879235        4.3897742306        1.1195050539
 H         -3.5709591015        2.7464182002        0.3641848436
 H         -1.1038610105        4.5241391624        0.8831908037
