  62
        -98.94371550
 C         -1.7326256827       -0.4686094945       -0.3209617830
 C         -2.9479671904       -0.9186183933       -0.8892058152
 C         -4.1516939025       -0.6955029142       -0.0807106582
 C         -4.0436352438       -0.1237124419        1.1326074754
 C         -5.1753892597        0.1462516861        2.0868045552
 C         -5.9266561917        1.4553533833        1.8082531441
 C         -6.8273617626        1.4379853704        0.5725850092
 H         -7.4900419315        0.5732228530        0.6193341395
 H         -7.4538691227        2.3309302806        0.6203750952
 C         -6.0705453417        1.4376511374       -0.7629929269
 H         -6.5224153192        2.1682663306       -1.4377123071
 H         -5.0375112474        1.7515548333       -0.5968354601
 C         -6.0670019937        0.0928814596       -1.4900324987
 H         -7.0866844233       -0.1700836917       -1.7802535364
 H         -5.4742099997        0.1984588111       -2.4022514998
 C         -5.4777374188       -1.0651135029       -0.6738998830
 H         -6.1745504380       -1.3674431044        0.1076405982
 H         -5.3167711198       -1.9115102578       -1.3462941100
 H         -5.1973279411        2.2633577993        1.7163737078
 H         -6.5484341353        1.6663088562        2.6813424696
 H         -5.8770881055       -0.6881296869        2.0698632574
 H         -4.7327619516        0.2084400112        3.0832278361
 O         -2.8518077750        0.2694596345        1.6549928762
 C         -1.6710478429        0.1247929941        0.9400921790
 O         -0.6601046225        0.5511860771        1.5281078697
 H          2.1900937528       -0.1566616663       -0.4454165874
 C          1.8264215650       -1.0937602319       -0.0611911149
 C          0.5239934426       -1.4915108161       -0.3139413842
 C          0.0918869325       -2.7183273954        0.1851144770
 C          0.9388517098       -3.5147302915        0.9297194145
 C          2.2369439305       -3.1092660078        1.1879644222
 C          2.6809488325       -1.8909908971        0.6894358239
 N          3.9762192963       -1.4396624197        0.9661747202
 S          4.8143584316       -0.4538072382       -0.0841830751
 O          4.6062281722       -0.8362037041       -1.4615146290
 O          6.1824628402       -0.5146162641        0.3852291814
 C          4.1712983860        1.1808990370        0.2042026049
 C          4.0164437255        2.0358265683       -0.8690303397
 C          3.5360204478        3.3159078036       -0.6439568884
 C          3.2238203662        3.7177205819        0.6455142823
 C          3.3914623561        2.8493938364        1.7132241773
 C          3.8721609430        1.5684430100        1.4947623204
 H          4.0053273747        0.8674115853        2.3016720170
 H          3.1427417029        3.1639771234        2.7139870857
 H          2.8449915350        4.7126917590        0.8190252900
 H          3.4040522101        3.9932005769       -1.4728727234
 H          4.2639006266        1.6769583078       -1.8557789232
 H          4.5723495235       -2.0844178217        1.4622984641
 H          2.8982653167       -3.7279516903        1.7752095766
 H          0.5884589785       -4.4614623276        1.3128550197
 H         -0.9227657894       -3.0350152584       -0.0151696868
 C         -0.4442701549       -0.6467745943       -1.1035206976
 H         -0.7262423948       -1.2058460202       -2.0084046648
 C          0.1124983354        0.6993437582       -1.5163668967
 C          0.9694494797        0.8180471754       -2.7397555929
 C         -0.4277063058        1.3593298580       -2.7482298759
 H         -0.5664031139        2.4298785473       -2.7411828078
 H         -1.1818120643        0.8247409378       -3.3073582088
 H          1.7907788390        1.5179496249       -2.7255898766
 H          1.1734325993       -0.0836501166       -3.2973718237
 H          0.3414540416        1.3346833213       -0.6676436485
 O         -3.0217705909       -1.4862376276       -2.0124348017
