  62
        -98.93336893
 C         -2.5944181061       -1.2807318435       -0.0896590753
 C         -2.6696242996       -0.0807502917       -0.8317384289
 C         -3.9896270561        0.5800928993       -0.8937484855
 C         -5.0306785656        0.0112651751       -0.2578976144
 C         -6.4437055841        0.5188879233       -0.1479746124
 C         -6.5809673692        1.6711890119        0.8609729534
 C         -5.4808048410        2.7270654864        0.7865976778
 H         -4.5108514644        2.2464502558        0.9290203503
 H         -5.6251168694        3.4162749130        1.6229583626
 C         -5.4555168037        3.5516379076       -0.4981645825
 H         -4.6766615121        4.3096038649       -0.3813685305
 H         -6.4102096230        4.0708803543       -0.6087526867
 C         -5.1736022921        2.7752438913       -1.7858153276
 H         -4.9564222775        3.5097194326       -2.5669565087
 H         -6.0535284813        2.2281377808       -2.1131644479
 C         -3.9667295658        1.8444517112       -1.7185156937
 H         -3.0952701201        2.4113825779       -1.3713066961
 H         -3.7152781196        1.5267659082       -2.7377453436
 H         -6.5617017506        1.2428913419        1.8661411977
 H         -7.5533976211        2.1443418591        0.7147919025
 H         -6.8111028136        0.8132100512       -1.1265026653
 H         -7.0523384073       -0.3195582937        0.1977129373
 O         -4.9085046021       -1.1505956805        0.4472063004
 C         -3.7056420485       -1.8179764172        0.5578466330
 O         -3.7497501992       -2.8586287864        1.2459650518
 H          1.2096282324       -1.1627026659       -0.8389108509
 C          0.9493047449       -0.7742486717        0.1332482124
 C         -0.2641404376       -1.1114225240        0.7089835056
 C         -0.5693315879       -0.5969122488        1.9667927101
 C          0.3115243503        0.2426878956        2.6199569667
 C          1.5145385831        0.5943644573        2.0322567388
 C          1.8311376663        0.0841996525        0.7813793659
 N          3.0377143264        0.4552606131        0.1594584086
 S          4.4450832196        0.4507248951        1.0918610656
 O          4.5781199211       -0.8119763619        1.7852753886
 O          4.4537522579        1.6278052496        1.9232759123
 C          5.6837071519        0.5996352820       -0.1801401342
 C          5.9621831562        1.8544364380       -0.6877618160
 C          6.9030911472        1.9741267076       -1.6979390292
 C          7.5453713795        0.8437479100       -2.1814048023
 C          7.2563809245       -0.4086482953       -1.6607292925
 C          6.3153492226       -0.5356885137       -0.6509801623
 H          6.0660947484       -1.4879316643       -0.2107538846
 H          7.7596926079       -1.2848346838       -2.0367121126
 H          8.2777769982        0.9396771536       -2.9673754787
 H          7.1323248144        2.9462086244       -2.1038442079
 H          5.4443431861        2.7046489570       -0.2756266959
 H          3.1833676294       -0.0442120151       -0.7076303664
 H          2.2096355548        1.2508300662        2.5299342130
 H          0.0604719863        0.6323084142        3.5955040429
 H         -1.5124442520       -0.8659744696        2.4242999341
 C         -1.2719951531       -2.0156604835        0.0410721481
 H         -1.4630936377       -2.8637401146        0.7144743903
 C         -0.8296785006       -2.5516473462       -1.3038176445
 C          0.0957177675       -3.7282241051       -1.3748270822
 C         -1.3452906856       -3.8833177627       -1.7560363834
 H         -1.5928405573       -4.0133395984       -2.7988455561
 H         -2.0010918056       -4.4159819946       -1.0826654778
 H          0.4234533497       -4.1625364101       -0.4422667194
 H          0.8367382281       -3.7570915932       -2.1594751249
 H         -0.7324293075       -1.7740524536       -2.0524820786
 O         -1.6814464501        0.4298648575       -1.4218530696
