  62
        -98.94046775
 C          2.0152303504        1.1979348895        0.5323345401
 C          1.9456429204       -0.1252568805        1.0434742501
 C          3.0564361204       -1.0189139005        0.7021565800
 C          4.0816840403       -0.5518255705       -0.0326260701
 C          5.3179637403       -1.3172654805       -0.4194432302
 C          5.1529844001       -2.1839801005       -1.6751248702
 C          4.2935958202       -3.4351351305       -1.4907035101
 H          4.4378102701       -4.0571850905       -2.3763142901
 H          4.6577229303       -4.0013576505       -0.6328271901
 C          2.7941230902       -3.1514312005       -1.3252260499
 H          2.5759141401       -2.1357575005       -1.6643392699
 H          2.2219410901       -3.8286182506       -1.9636127498
 C          2.2684507304       -3.3210919605        0.1001348202
 H          2.3588588204       -4.3671111505        0.4011569202
 H          1.2067219404       -3.0617467505        0.0984890103
 C          2.9771298505       -2.4487461205        1.1452334001
 H          2.3978208506       -2.4786343005        2.0713036301
 H          3.9743434605       -2.8402555405        1.3453090700
 H          4.7325399000       -1.5674837105       -2.4731529602
 H          6.1515203101       -2.4970383805       -1.9888773603
 H          6.0944494102       -0.5742553805       -0.6141728404
 H          5.6367649004       -1.9421695705        0.4154268397
 O          4.1166176202        0.7212435295       -0.5015037201
 C          3.0755531802        1.6138208995       -0.2736694700
 O          3.2395080702        2.7122760195       -0.8398406501
 O          0.9984366105       -0.5360639705        1.7639361403
 C          0.8537404704        2.1125201395        0.8840986002
 C         -0.2214978897        2.0421040995       -0.1748536696
 C          0.0692396901        2.2994310294       -1.5105551597
 C         -0.9135089200        2.1911268294       -2.4776118896
 C         -2.2048825700        1.8305950694       -2.1334574394
 C         -2.5078502698        1.5812035494       -0.8025968293
 C         -1.5196335497        1.6924925694        0.1687015805
 H         -1.7583816196        1.4796625595        1.2020914206
 N         -3.8292154898        1.2123568094       -0.4669420492
 S         -4.3420333998       -0.3209930006       -0.9127850391
 O         -3.8074746400       -0.6248752806       -2.2148851091
 O         -5.7814189498       -0.3188635906       -0.7890690089
 C         -3.6509385096       -1.4048363706        0.3261520309
 C         -2.2793254296       -1.5580527506        0.3836806307
 C         -1.7324660995       -2.3195657605        1.4041897206
 C         -2.5635198594       -2.9300686205        2.3312695708
 C         -3.9398883294       -2.7810642305        2.2503758609
 C         -4.4908537695       -2.0002494306        1.2469838510
 H         -5.5529410595       -1.8394412906        1.1559967611
 H         -4.5824575893       -3.2595454505        2.9720594610
 H         -2.1311418693       -3.5208831005        3.1234417607
 H         -0.6598159495       -2.3954371905        1.4875707005
 H         -1.6541321097       -1.0772279406       -0.3525684594
 H         -4.0585250897        1.3696410494        0.5048006909
 H         -2.9764293401        1.7230849894       -2.8779870893
 H         -0.6716556102        2.3889644294       -3.5111215796
 H          1.0762831300        2.5767763094       -1.7838342198
 H          0.4332396705        1.6989016495        1.8110780903
 C          1.2507177904        3.5522709495        1.1411571002
 C          0.3732831605        4.4046867695        2.0061242002
 C          1.7116511306        3.9542094195        2.5084870201
 H          2.5073037606        4.6792874696        2.5891181900
 H          1.7395379007        3.1903986996        3.2719951201
 H          0.2452404204        5.4431173395        1.7422999502
 H         -0.5069092594        3.9486938795        2.4334694004
 H          1.7350386403        4.0232028495        0.2961873401
