  62
        -98.94026562
 C         -1.4891029001       -1.2501198298        0.3034879208
 C         -1.5548018600        0.1678405202        0.3244392511
 C         -2.7519561100        0.7773357404       -0.2665743586
 C         -3.7039214201       -0.0209990494       -0.7824024186
 C         -5.0023156002        0.4583893408       -1.3629561883
 C         -6.0978477900        0.5364382406       -0.2903360581
 C         -5.6698869898        1.2732373703        0.9789240220
 H         -4.8856339298        0.6984326901        1.4768194418
 H         -6.5308691197        1.2902497602        1.6508033922
 C         -5.1747906997        2.7072948403        0.7445660723
 H         -5.6304691696        3.3614711802        1.4909329825
 H         -5.5028198499        3.0565684306       -0.2351058376
 C         -3.6594690997        2.8803997902        0.8631079221
 H         -3.3143552196        2.4469502900        1.8050414119
 H         -3.4420135896        3.9512265102        0.8955176123
 C         -2.8300749299        2.2778669404       -0.2775129382
 H         -1.7997245399        2.6257747203       -0.1610275883
 H         -3.2108255501        2.6348421106       -1.2365865481
 H         -6.3858996501       -0.4807815594       -0.0147669583
 H         -6.9699102001        1.0301523007       -0.7231764878
 H         -5.3141595304       -0.2450172390       -2.1367851784
 H         -4.8517731102        1.4372786009       -1.8142822781
 O         -3.6053929902       -1.3732312194       -0.7927265889
 C         -2.4913123602       -2.0286016596       -0.2746545292
 O         -2.5421631703       -3.2659023996       -0.3967265995
 O         -0.6481847098        0.8867733100        0.8205260011
 C         -0.2230727400       -1.8559371800        0.8831986405
 C          0.8521912198       -1.8288321498       -0.1724551897
 C          0.6404358296       -2.4064058295       -1.4214927998
 C          1.6217916195       -2.3484272894       -2.3929190100
 C          2.8200002595       -1.7000671895       -2.1463763600
 C          3.0375399098       -1.1145667898       -0.9047179299
 C          2.0561066699       -1.1884891800        0.0754967502
 H          2.2382874801       -0.7331000102        1.0366832503
 N          4.2438496398       -0.4618139999       -0.6274957299
 S          4.3229816101        0.8122277198        0.4459208203
 O          5.5659362201        1.4738688098        0.1079091203
 O          4.2260000403        0.3252101895        1.7996176802
 C          2.9568501801        1.8964714400        0.0731310208
 C          2.1954028903        2.4012134598        1.1057788510
 C          1.1741212603        3.2906140999        0.8158576114
 C          0.9315657601        3.6548047802       -0.4980373585
 C          1.7017391699        3.1347552704       -1.5266851987
 C          2.7286429299        2.2507308003       -1.2416348291
 H          3.3481204598        1.8397540204       -2.0223462793
 H          1.5036526298        3.4153936607       -2.5489493786
 H          0.1341420301        4.3460329003       -0.7235031282
 H          0.5662799704        3.6841973098        1.6141725416
 H          2.4070076004        2.0832856596        2.1141389809
 H          4.8705370597       -0.3497008198       -1.4099520400
 H          3.5825112594       -1.6487697594       -2.9083737801
 H          1.4500521793       -2.8047321792       -3.3561449700
 H         -0.3012657205       -2.8984047194       -1.6169687098
 H          0.0879076402       -1.1594162202        1.6788565006
 C         -0.4109775200       -3.2204334001        1.5267699302
 C          0.1992466299       -4.4790478601        0.9945335098
 C          0.7415151501       -3.8588590604        2.2449667098
 H          0.5589583002       -4.3466943506        3.1905291498
 H          1.6988833701       -3.3617980404        2.1825025198
 H         -0.3816863802       -5.3853162700        1.0725236997
 H          0.7973038997       -4.4221260999        0.0988824897
 H         -1.3870413899       -3.3229690902        1.9886842603
