  62
        -98.93233773
 C          2.2542652886       -1.0051905186        0.3527589095
 C          3.6342630879       -1.1712330322        0.0725841286
 C          4.5246010390       -0.0388882425        0.3798975279
 C          3.9946819084        1.1034148022        0.8544310500
 C          4.6438002070        2.4021659266        1.2852523849
 C          6.0982559112        2.7027519029        0.9330299878
 C          6.3638730659        2.9195940787       -0.5564321669
 H          5.8984134236        3.8613164364       -0.8582903529
 H          7.4417916755        3.0203392248       -0.7005004322
 C          5.8382545492        1.8289780977       -1.4865602851
 H          4.7489028549        1.7839926419       -1.4212577316
 H          6.0856392868        2.1168305707       -2.5120851307
 C          6.4089968035        0.4328304416       -1.2459733704
 H          6.0728734688       -0.2058631326       -2.0673111465
 H          7.4995642418        0.4711930053       -1.2774393056
 C          5.9796789880       -0.2412329967        0.0684118023
 H          6.1222433091       -1.3198789200       -0.0448370589
 H          6.5990430763        0.0845055413        0.9006266765
 H          6.7488902733        1.9281380720        1.3279779131
 H          6.3586733582        3.6292701174        1.4519543988
 H          4.0063966299        3.1986157744        0.8878083393
 H          4.5371200937        2.4387099658        2.3751477981
 O          2.6542670371        1.2320828074        1.0731042163
 C          1.7519300840        0.2043859176        0.8324052530
 O          0.5733045285        0.5095374103        1.0931388322
 H         -1.2497819454       -1.6114620643        0.7434307482
 C         -1.0670714529       -1.4421084793       -0.3062504292
 C          0.1917728380       -1.6872446935       -0.8290960757
 C          0.4180554730       -1.4249213175       -2.1770916435
 C         -0.5936905723       -0.9318933390       -2.9790695226
 C         -1.8501856065       -0.6862934109       -2.4534387769
 C         -2.0819006522       -0.9336409040       -1.1075335139
 N         -3.3559474648       -0.6958005769       -0.5574216444
 S         -4.1892322343        0.6825173051       -1.0649177339
 O         -4.8080245536        0.3942605322       -2.3360339507
 O         -3.3290802853        1.8441719233       -1.0355154338
 C         -5.4408139011        0.7971385451        0.1984135656
 C         -5.1661211869        1.5138215626        1.3479226904
 C         -6.1295592783        1.5801642852        2.3421113749
 C         -7.3428638948        0.9299070193        2.1720464460
 C         -7.6034523288        0.2143916121        1.0129659690
 C         -6.6449421904        0.1447704877        0.0144118129
 H         -6.8043489156       -0.3913903306       -0.9064109183
 H         -8.5487385450       -0.2875673164        0.8841156655
 H         -8.0903579048        0.9843514981        2.9476517827
 H         -5.9301220283        2.1377702335        3.2431525118
 H         -4.2123059671        2.0105773151        1.4344416598
 H         -3.3352024079       -0.7420057098        0.4526561094
 H         -2.6446562044       -0.2879319219       -3.0637566119
 H         -0.4044354724       -0.7310736595       -4.0231814391
 H          1.4037112769       -1.6003654489       -2.5865345651
 C          1.3338100938       -2.1692170050        0.0274723612
 H          1.9563600112       -2.8421045460       -0.5841835554
 C          0.8779715561       -2.9804616277        1.2307696232
 C          1.8195915604       -3.2482478914        2.3656964315
 C          0.6169705478       -2.3810337897        2.5787792275
 H         -0.2015353362       -2.7789254690        3.1612423627
 H          0.7601344490       -1.3186936961        2.6977583019
 H          1.8312732698       -4.2336734334        2.8062402971
 H          2.7894523461       -2.7738861539        2.3265899310
 H          0.2327714310       -3.8021513574        0.9341888285
 O          4.1110135110       -2.2330594290       -0.4095579484
