  62
        -98.93974605
 C          1.1732108347        1.2510948130       -0.6543221959
 C          2.4934373680        1.3923751175       -0.1613684119
 C          3.4268048748        0.2696180584       -0.3695677100
 C          2.9770189155       -0.8311445556       -0.9996713043
 C          3.7118929403       -2.1143373123       -1.2868058964
 C          3.8702887940       -2.9969017264       -0.0400558179
 C          4.3461044141       -2.2599894513        1.2087249101
 H          4.3467920981       -2.9762667480        2.0348670922
 H          3.6224888091       -1.4819869974        1.4601070280
 C          5.7434614182       -1.6508688304        1.1142989266
 H          6.4602710546       -2.4362383934        0.8649616768
 H          5.9972228917       -1.2735455188        2.1081740839
 C          5.9085068077       -0.5008810662        0.1170467188
 H          6.0165747954       -0.8700723214       -0.8993882823
 H          6.8439604818        0.0101155517        0.3624684044
 C          4.8062899327        0.5514935439        0.1757968059
 H          5.1504371063        1.4483355751       -0.3532363711
 H          4.6654533125        0.8690544184        1.2153653464
 H          4.5645484063       -3.8055808415       -0.2761695211
 H          2.8972275466       -3.4404555697        0.1877635643
 H          4.6789013286       -1.9032525461       -1.7337743264
 H          3.1152477562       -2.6579507795       -2.0228390148
 O          1.6984081728       -0.9264751941       -1.4590533011
 C          0.7664169210        0.0844645148       -1.3022629626
 O         -0.3458330252       -0.1861512582       -1.7952886880
 O          2.8911064021        2.4312876981        0.4347275850
 C          0.2263152989        2.4129889145       -0.4030621441
 C         -0.5784188535        2.1598314928        0.8494530116
 C         -0.4898931162        3.0105230185        1.9448882396
 C         -1.2104462926        2.7484105361        3.0968899933
 C         -2.0172338080        1.6283089259        3.1824627836
 C         -2.1109270868        0.7708453891        2.0914366043
 C         -1.4103070112        1.0519216576        0.9286080115
 H         -1.4808761670        0.3790896889        0.0898105530
 N         -2.9258528431       -0.3684485303        2.1355672218
 S         -2.4813662659       -1.7496668043        1.2982341304
 O         -3.2524803581       -2.8045263078        1.9286258881
 O         -1.0489990006       -1.9436207191        1.3076463792
 C         -3.1073818593       -1.5120607525       -0.3497370971
 C         -4.2081671188       -0.7022389271       -0.5461653574
 C         -4.7146723796       -0.5634862621       -1.8279788801
 C         -4.1207143875       -1.2383457260       -2.8833585011
 C         -3.0213295516       -2.0531233673       -2.6669254479
 C         -2.5072661430       -2.1935601821       -1.3879425921
 H         -1.6403445035       -2.8010063434       -1.1823688132
 H         -2.5533807213       -2.5716986406       -3.4882927276
 H         -4.5134361122       -1.1255970294       -3.8818496609
 H         -5.5673985188        0.0736582578       -2.0002486683
 H         -4.6406927733       -0.1855113597        0.2944452945
 H         -3.3315661844       -0.5809291766        3.0351401420
 H         -2.5659891730        1.4128897948        4.0865695283
 H         -1.1328896974        3.4151706939        3.9422857903
 H          0.1641006495        3.8686986289        1.8961505945
 H          0.8752486651        3.2793569270       -0.2150071510
 C         -0.6823995767        2.7348624395       -1.5723989968
 C         -1.2748609423        4.1073483300       -1.6738090182
 C         -0.2067958559        3.6787860764       -2.6339107020
 H         -0.4796499516        3.4779413607       -3.6588445742
 H          0.7811632079        4.1012085172       -2.5207475196
 H         -2.2853508687        4.2045297299       -2.0390475811
 H         -1.0108474290        4.8240988518       -0.9110499636
 H         -1.2899622716        1.8972184800       -1.8883692102
