  62
        -98.94446442
 C         -2.6463745746       -1.2958944147        0.1110968698
 C         -2.5715522176       -0.2916421846       -0.8844082099
 C         -3.5596064682        0.7927490618       -0.7766548918
 C         -4.4648051416        0.7694559610        0.2180193250
 C         -5.4916809095        1.8337979679        0.4719596415
 C         -4.9592416347        2.8992967490        1.4402049577
 C         -3.5753185537        3.4342289572        1.0712003617
 H         -3.3169351331        4.2016721655        1.8040693751
 H         -2.8399474437        2.6325912646        1.1755681509
 C         -3.4788738241        4.0259847107       -0.3419259844
 H         -4.4771897527        4.2531740277       -0.7179125331
 H         -2.9289198249        4.9679851508       -0.2899069406
 C         -2.7468377821        3.1410838170       -1.3530060228
 H         -2.5444642566        3.7406319773       -2.2449325607
 H         -1.7801505028        2.8351370393       -0.9423484025
 C         -3.5003752360        1.8844690672       -1.8076473327
 H         -4.5041049887        2.1577946125       -2.1395106991
 H         -2.9586908523        1.4639552456       -2.6601009323
 H         -4.9006051665        2.4613875815        2.4391912884
 H         -5.6728171539        3.7245410927        1.4716884853
 H         -5.7717442270        2.2941286511       -0.4734255189
 H         -6.3722821778        1.3633121671        0.9123721869
 O         -4.5156758032       -0.2191082815        1.1462283480
 C         -3.6018603627       -1.2577750238        1.1302909655
 O         -3.7444501407       -2.0794512736        2.0573225339
 H          0.3852365145       -1.6516158944       -1.4927143213
 C          0.6182552109       -1.5243501402       -0.4476102601
 C         -0.3047317063       -1.9023040987        0.5145476531
 C          0.0053895418       -1.6918999901        1.8553763525
 C          1.2115187256       -1.1235214306        2.2194800080
 C          2.1288328610       -0.7423692000        1.2551279238
 C          1.8202436128       -0.9304235966       -0.0847779186
 N          2.7379875801       -0.5315457612       -1.0720516836
 S          3.4041230677        1.0053336180       -0.9532787003
 O          2.5334512726        1.9167820306       -0.2473464037
 O          3.7612821360        1.3709062161       -2.3068340699
 C          4.8978769509        0.7381083286       -0.0192474499
 C          5.1401562110        1.4766153309        1.1222864202
 C          6.3130572623        1.2558406705        1.8277163952
 C          7.2188765086        0.3063046906        1.3806895373
 C          6.9623822683       -0.4250158585        0.2303808014
 C          5.7923570608       -0.2084105676       -0.4795713434
 H          5.5571475812       -0.7523633606       -1.3790112871
 H          7.6692981146       -1.1624071392       -0.1143041001
 H          8.1300913048        0.1355778546        1.9319198781
 H          6.5139669803        1.8241879905        2.7216815798
 H          4.4045512843        2.2007954952        1.4350405959
 H          2.4102367396       -0.7020505711       -2.0123979688
 H          3.0662385974       -0.2876100329        1.5308802359
 H          1.4401156291       -0.9715269831        3.2634994348
 H         -0.7213298978       -1.9674202479        2.6072885179
 C         -1.6609720485       -2.4547013694        0.1490823647
 H         -1.9949499399       -3.1038511153        0.9691252160
 C         -1.6714518875       -3.2544243402       -1.1369776696
 C         -1.0273400895       -4.6070765946       -1.1603031747
 C         -2.5195368475       -4.4860380978       -1.2238533592
 H         -3.0167431599       -4.7032829044       -2.1573728978
 H         -3.0935445405       -4.7596587904       -0.3505512891
 H         -0.4979030593       -4.9116025046       -2.0501043923
 H         -0.5866549512       -4.9631569928       -0.2414904939
 H         -1.6008184667       -2.6424828609       -2.0272936814
 O         -1.7349759686       -0.2909359776       -1.8265637976
