  62
        -98.94137247
 C          2.4414126889        1.2406972808        0.1022459958
 C          2.9444450413        0.3841276775        1.1165757512
 C          3.5845196673       -0.8553848133        0.6674310949
 C          3.6681199345       -1.1205108986       -0.6483241499
 C          4.2968589278       -2.3374591163       -1.2701876836
 C          3.3656639228       -3.5565534208       -1.3228157911
 C          3.1165411784       -4.2435116365        0.0205494145
 H          2.6428733383       -5.2032397784       -0.1953108809
 H          4.0715857730       -4.4517966197        0.5041537733
 C          2.2125295740       -3.4550414774        0.9787874304
 H          1.6553149301       -2.6979717844        0.4201404796
 H          1.4710871620       -4.1287778542        1.4147382252
 C          2.9487032526       -2.7824422723        2.1380514700
 H          3.3809663256       -3.5464234117        2.7882260316
 H          2.2185806097       -2.2151170408        2.7207288335
 C          4.0636886243       -1.8200337476        1.7095595909
 H          4.3687729986       -1.2392734433        2.5834733688
 H          4.9234883732       -2.3796332285        1.3419374864
 H          2.4096852214       -3.2493851319       -1.7550253873
 H          3.8188006021       -4.2838459845       -2.0006665268
 H          4.5630889183       -2.0625315549       -2.2931123880
 H          5.2082380826       -2.5966740162       -0.7305838834
 O          3.1885474637       -0.2703098796       -1.5925623084
 C          2.5401864403        0.9101387341       -1.2490674808
 O          2.1252722803        1.5501521945       -2.2357745437
 O          2.8688446507        0.6539173228        2.3446213316
 C          1.7417281591        2.5059297622        0.5723868718
 C          0.2663513820        2.2308125467        0.7098515590
 C         -0.3959358148        2.3939003322        1.9201354684
 C         -1.7373981870        2.0712081332        2.0387434294
 C         -2.4415229798        1.5718871181        0.9571208447
 C         -1.7863779243        1.4053581981       -0.2558171490
 C         -0.4488947080        1.7417525278       -0.3757269518
 H          0.0543290553        1.6020444691       -1.3218364129
 N         -2.4887929799        0.8491256112       -1.3559547183
 S         -2.6540720260       -0.8258088888       -1.2245857383
 O         -1.5073812252       -1.4188158367       -0.5710615296
 O         -2.9450202105       -1.2980894376       -2.5608904857
 C         -4.1014821168       -0.9993545680       -0.2048108559
 C         -3.9908225974       -1.5308990242        1.0645961436
 C         -5.1304981134       -1.6354100631        1.8472059188
 C         -6.3518096760       -1.2077360538        1.3490912215
 C         -6.4455471471       -0.6766749250        0.0708952626
 C         -5.3107114853       -0.5701585607       -0.7169334715
 H         -5.3356425784       -0.1679329727       -1.7159520633
 H         -7.3969784662       -0.3449712122       -0.3123618710
 H         -7.2360921094       -1.2885431207        1.9613260952
 H         -5.0593996962       -2.0470861921        2.8411090235
 H         -3.0183762249       -1.8432726653        1.4104871093
 H         -2.0281347616        1.0467425504       -2.2352696074
 H         -3.4840145110        1.3119022794        1.0430704592
 H         -2.2378525937        2.2020863665        2.9857745109
 H          0.1542257992        2.7557549234        2.7763531542
 H          2.1419453842        2.6850884021        1.5825844386
 C          2.0631914326        3.7298615451       -0.2734050214
 C          1.0412157927        4.4831844309       -1.0669911991
 C          1.6078405133        5.0854018519        0.1811886655
 H          2.2895255752        5.9176979863        0.0953408493
 H          0.9669029284        5.1241668547        1.0491397626
 H          1.3470724207        4.8788891244       -2.0236115508
 H          0.0188913040        4.1395211408       -1.0475205526
 H          3.0549272938        3.6712086186       -0.7097546928
