  62
        -98.94052980
 C          2.3466161670       -0.1359461129       -0.2662302632
 C          3.4982605226       -0.4388246554       -1.0309815070
 C          4.7293021360        0.2622066369       -0.6436914967
 C          4.6912482294        1.1430830176        0.3730659157
 C          5.8805325200        1.8874510846        0.9060347521
 C          6.5580123845        1.1110051582        2.0440044978
 C          6.8301894670       -0.3566954980        1.7143302450
 H          7.3353271793       -0.7955405045        2.5775402761
 H          5.8773454615       -0.8788668071        1.6004789783
 C          7.6821635558       -0.5774518515        0.4565772169
 H          8.2060558541        0.3432692451        0.1975462635
 H          8.4408246238       -1.3317348916        0.6756153643
 C          6.8993474250       -1.0739371334       -0.7603391236
 H          6.2984124719       -1.9428252254       -0.4801408210
 H          7.6176286327       -1.4030174949       -1.5159678453
 C          5.9764281593       -0.0443950072       -1.4244778821
 H          6.5351840920        0.8699605011       -1.6338421695
 H          5.6377435337       -0.4663718357       -2.3752602537
 H          7.4965099167        1.6104624606        2.2913133263
 H          5.9100679172        1.1496341471        2.9227016413
 H          6.5881457060        2.0582518148        0.0970975989
 H          5.5390660987        2.8506995325        1.2885104729
 O          3.5602733605        1.4247264752        1.0696794897
 C          2.3621393680        0.7901125545        0.7765644698
 O          1.4084306780        1.1344336170        1.4998881429
 H         -1.5530573188       -0.6184844071        0.3462907403
 C         -1.2929699080        0.1344688517       -0.3784193940
 C         -0.0274975044        0.1705714275       -0.9404478308
 C          0.2579224353        1.1636801004       -1.8750114675
 C         -0.6954150786        2.0987250289       -2.2263159051
 C         -1.9610528869        2.0546902906       -1.6676867305
 C         -2.2570847114        1.0676394975       -0.7362812792
 N         -3.5245383376        1.0067452991       -0.1345690890
 S         -4.1753692196       -0.5132417004        0.2070835683
 O         -3.6735349478       -0.9671838019        1.4794729013
 O         -3.9714113980       -1.4017913950       -0.9147280810
 C         -5.9038891356       -0.0988568188        0.3584929303
 C         -6.3560773738        0.4389020211        1.5488703304
 C         -7.6932244298        0.7847704220        1.6622881013
 C         -8.5511539018        0.5889207700        0.5900066951
 C         -8.0832521276        0.0471804240       -0.5976943160
 C         -6.7467251879       -0.2998935607       -0.7183733245
 H         -6.3402996197       -0.7326142226       -1.6183642321
 H         -8.7532105089       -0.1067582495       -1.4282193778
 H         -9.5916434696        0.8576297974        0.6819567022
 H         -8.0610849931        1.2037213470        2.5849834823
 H         -5.6546273071        0.5638063095        2.3573956407
 H         -4.2009628410        1.6118193273       -0.5797562584
 H         -2.7081877155        2.7830418233       -1.9442969358
 H         -0.4557115950        2.8646105424       -2.9487330509
 H          1.2436959785        1.1923577542       -2.3197155928
 C          1.0421106539       -0.8363690131       -0.5968649186
 H          1.2489548940       -1.4317429294       -1.4995683501
 C          0.6490144712       -1.7767719202        0.5226752058
 C         -0.2020467786       -2.9765302466        0.2365934918
 C          1.2481619806       -3.1490227334        0.5721013698
 H          1.5100105430       -3.5633897263        1.5340986938
 H          1.9272171581       -3.4219591877       -0.2225656583
 H         -0.9440731590       -3.2656218808        0.9663285992
 H         -0.5140436301       -3.1352486721       -0.7849776198
 H          0.4993168700       -1.2614591869        1.4657503104
 O          3.4946044387       -1.2515913965       -1.9949234963
