  62
        -98.93531377
 C         -1.6577404048       -0.2194858674        0.8846647902
 C         -2.8639865037       -0.9220594626        0.6575427057
 C         -4.0649734034       -0.1042524782        0.3947243083
 C         -3.9637057353        1.2360969093        0.3427317655
 C         -5.0084670667        2.3107662663        0.1250900934
 C         -6.3921541321        1.9598484553       -0.4158045260
 C         -6.4077944382        1.4601810658       -1.8600188303
 H         -7.4268419140        1.1509599304       -2.1028033998
 H         -6.1472476601        2.2925313173       -2.5186967463
 C         -5.4525698760        0.3105792584       -2.1712893290
 H         -5.5688472367        0.0566522593       -3.2284866224
 H         -4.4212384999        0.6416640948       -2.0328297760
 C         -5.6769796048       -0.9641515115       -1.3603819190
 H         -5.0437400453       -1.7438002807       -1.7922323276
 H         -6.7159049121       -1.2850060523       -1.4589005790
 C         -5.3329752056       -0.8664656731        0.1360132022
 H         -6.1568219778       -0.4430494959        0.7053753154
 H         -5.1638536164       -1.8807706501        0.5088099647
 H         -6.8835195120        1.2462247093        0.2389908776
 H         -6.9820808210        2.8798456180       -0.3794109411
 H         -5.1321947186        2.8050048239        1.0950993979
 H         -4.5418181593        3.0468008819       -0.5372686503
 O         -2.7726606139        1.8708290124        0.5487469625
 C         -1.6110384444        1.1759807928        0.8216032097
 O         -0.6114110944        1.9023758283        0.9909106512
 H          2.0608923231       -0.1191090312        0.2386238819
 C          1.6098752360       -0.8743468396       -0.3867852260
 C          0.3584557571       -1.3760888889       -0.0610599468
 C         -0.2184938896       -2.3320710658       -0.8902139064
 C          0.4506205801       -2.7716779880       -2.0174277042
 C          1.7105641089       -2.2885106548       -2.3250679545
 C          2.2958748927       -1.3339239209       -1.5020602073
 N          3.5662026313       -0.8168259146       -1.7896091772
 S          4.6349886426       -0.4602988126       -0.5526590389
 O          5.9382440835       -0.5038306711       -1.1808382861
 O          4.4467774227       -1.3330049744        0.5822147383
 C          4.2658578542        1.2239312009       -0.1130805359
 C          4.0181187996        1.5508918618        1.2048336922
 C          3.7542758588        2.8716808070        1.5306367413
 C          3.7445227085        3.8376351547        0.5368808438
 C          3.9994976103        3.4939254327       -0.7821291471
 C          4.2644554741        2.1753234752       -1.1136029652
 H          4.4708416844        1.8707007102       -2.1260971487
 H          3.9900654869        4.2494571791       -1.5512431061
 H          3.5350424723        4.8641091898        0.7933249108
 H          3.5521716977        3.1402216533        2.5552137151
 H          4.0302744275        0.7677197633        1.9470141029
 H          4.0294481277       -1.2357397720       -2.5826036769
 H          2.2378242868       -2.6452864474       -3.1970078797
 H         -0.0076856801       -3.5103320302       -2.6578338100
 H         -1.1946390280       -2.7204995588       -0.6440816351
 C         -0.3310861912       -0.8936682994        1.1928038192
 H          0.3013528288       -0.1096590139        1.6314864750
 C         -0.4410090218       -2.0295394059        2.1931176798
 C          0.8104332339       -2.5301453613        2.8474885388
 C         -0.1962018575       -1.7571719766        3.6449556941
 H         -0.7901800529       -2.2853781860        4.3757294065
 H          0.0477536968       -0.7440399408        3.9304457872
 H          0.9058677134       -3.5896873077        3.0301675364
 H          1.7420562152       -2.0493354141        2.5853945809
 H         -1.2025816876       -2.7548551354        1.9401218132
 O         -2.9693059642       -2.1774565539        0.6741251244
