  62
        -98.94763652
 C         -0.7960716655       -1.1782179089        0.5969761632
 C         -1.2349439873       -0.7319466058       -0.6729248168
 C         -2.1666556852        0.4023784793       -0.6584522642
 C         -2.5096354575        0.9717126884        0.5107540473
 C         -3.4915093355        2.0971876942        0.6918263585
 C         -4.9540689920        1.6325411844        0.7456407956
 C         -5.5483986594        1.2021832098       -0.5963073475
 H         -6.6282352918        1.1212444226       -0.4561859263
 H         -5.3742933446        1.9831503051       -1.3369816744
 C         -5.0200657707       -0.1382744869       -1.1259686906
 H         -4.5488446677       -0.6927970827       -0.3109766692
 H         -5.8572688422       -0.7436588170       -1.4810921568
 C         -4.0262530087       -0.0186801927       -2.2816960118
 H         -3.6950675972       -1.0245555864       -2.5516969515
 H         -4.5253203028        0.4158484119       -3.1506250168
 C         -2.7810267872        0.8189007563       -1.9603789565
 H         -2.0406461128        0.6468072758       -2.7449992582
 H         -3.0342046841        1.8779282540       -1.9411380192
 H         -5.5472198618        2.4659901518        1.1290946508
 H         -5.0356774850        0.8110698422        1.4612394076
 H         -3.2488634405        2.5773929897        1.6414456434
 H         -3.3755587225        2.8239988736       -0.1109433793
 O         -1.9867283821        0.5730550447        1.7018289911
 C         -1.1419618058       -0.5224114800        1.7770473405
 O         -0.7686823760       -0.8060315781        2.9349317218
 H          1.6059655836       -0.2582854929        0.4739457886
 C          1.9872914580       -1.0623460840       -0.1388276507
 C          1.3116855786       -2.2755983523       -0.1565429910
 C          1.8201203726       -3.3087679167       -0.9334092685
 C          2.9688233766       -3.1194798660       -1.6817539319
 C          3.6355343897       -1.9088056458       -1.6650202416
 C          3.1374718093       -0.8697374859       -0.8857434512
 N          3.7675129982        0.3797464684       -0.8756557647
 S          3.5901223212        1.4525749294        0.3824908190
 O          4.6187650047        2.4442740555        0.1467865307
 O          3.6389403998        0.7959250678        1.6685037113
 C          2.0017423188        2.2103235816        0.1198009796
 C          1.2026878169        2.4922480643        1.2094918704
 C          0.0053395243        3.1593559846        1.0088889879
 C         -0.3713514497        3.5268151376       -0.2730345973
 C          0.4341554515        3.2226143219       -1.3590044984
 C          1.6363769512        2.5630532173       -1.1637743283
 H          2.2906036062        2.3174764393       -1.9835967597
 H          0.1312449940        3.5015106515       -2.3552652429
 H         -1.2967172726        4.0588143913       -0.4241370236
 H         -0.6252310832        3.3851443688        1.8539888193
 H          1.5251640868        2.1765034102        2.1899786805
 H          4.6600494287        0.4377254747       -1.3410950886
 H          4.5293883179       -1.7617704496       -2.2515001054
 H          3.3518617248       -3.9281080271       -2.2856568913
 H          1.3158742508       -4.2608218961       -0.9571457355
 C          0.0767497988       -2.4147412716        0.6987576911
 H          0.3993669263       -2.4772993597        1.7493311468
 C         -0.7474144953       -3.6434906600        0.3670048783
 C         -0.4574469855       -4.9562955623        1.0283172235
 C         -1.6856251158       -4.1836593378        1.4025560736
 H         -2.6482698161       -4.5555143489        1.0848727487
 H         -1.7055489604       -3.6825218023        2.3598568758
 H         -0.5804511175       -5.8625770237        0.4545941017
 H          0.3542171134       -4.9897586042        1.7394959828
 H         -1.0831357602       -3.6506705113       -0.6639440672
 O         -0.8836363543       -1.2621079788       -1.7580715917
