  62
        -98.94083719
 C          1.5921405267        1.6403147517        0.4338433003
 C          2.1011839076        1.0958853192       -0.7706704694
 C          3.0825951860        0.0072055562       -0.6203536323
 C          3.3949162138       -0.4438410944        0.6072837929
 C          4.3401094824       -1.5736126427        0.8960049423
 C          3.6143170613       -2.9255859065        0.9445461556
 C          2.6955261775       -3.1783467086       -0.2504405670
 H          2.2566657249       -4.1701418115       -0.1226483228
 H          1.8725734721       -2.4614227653       -0.2287475723
 C          3.3916673695       -3.0968921213       -1.6156650777
 H          3.0665442575       -3.9419020497       -2.2263447750
 H          4.4714555797       -3.1845587960       -1.4897436471
 C          3.0759057076       -1.8270730778       -2.4082182195
 H          3.4351923432       -1.9669560628       -3.4314229297
 H          1.9923599927       -1.6900558042       -2.4623752736
 C          3.7064536780       -0.5331824608       -1.8771284275
 H          4.7793964847       -0.6816262076       -1.7375035186
 H          3.5636353096        0.2394582460       -2.6385893603
 H          3.0127255902       -2.9669901609        1.8554509231
 H          4.3645160213       -3.7162655168        1.0005434392
 H          5.1132693380       -1.5943932534        0.1300826284
 H          4.8076522493       -1.3882779233        1.8645615162
 O          2.8445221490        0.0653417280        1.7385737917
 C          1.9523519507        1.1238193514        1.6827878974
 O          1.5547854144        1.5142788952        2.7964662221
 H         -0.4130101360        1.2081733978       -1.4282334910
 C         -1.1475806211        1.4373178268       -0.6698185126
 C         -0.8002856480        2.2811919732        0.3764920433
 C         -1.7559826873        2.5712458085        1.3418796408
 C         -3.0273414612        2.0278639977        1.2606348620
 C         -3.3643422170        1.1736045984        0.2261560873
 C         -2.4126521041        0.8766183284       -0.7411944362
 N         -2.7243351353       -0.0506282891       -1.7568491496
 S         -3.2296165536       -1.5478581597       -1.1914432564
 O         -2.7395203540       -2.5159947928       -2.1470359875
 O         -4.6585854427       -1.5242346148       -1.0025625697
 C         -2.4268651891       -1.7460756834        0.3928660293
 C         -3.1939052311       -1.9279801775        1.5251399669
 C         -2.5632880877       -2.0265649241        2.7551185446
 C         -1.1831818267       -1.9283274971        2.8325471863
 C         -0.4255996877       -1.7468987164        1.6858767596
 C         -1.0496309268       -1.6587245158        0.4528174363
 H         -0.4816330526       -1.5178849787       -0.4542952073
 H          0.6471519446       -1.6556713052        1.7540140450
 H         -0.6885963136       -1.9856751864        3.7892505484
 H         -3.1484633516       -2.1690132325        3.6491683341
 H         -4.2652655839       -1.9819947410        1.4204560621
 H         -1.9763603993       -0.1637497902       -2.4270559098
 H         -4.3403079724        0.7204301045        0.1573233261
 H         -3.7595257346        2.2614563802        2.0179756806
 H         -1.4908886415        3.2100406428        2.1712237508
 C          0.6094413494        2.8024525841        0.4781978907
 H          0.7291369274        3.2406305290        1.4809943122
 C          0.9289722886        3.8930358408       -0.5355026884
 C          0.0407381955        4.2433670750       -1.6881881028
 C          0.1452059271        5.1721888147       -0.5185463044
 H          0.6726208289        6.1061168619       -0.6398193553
 H         -0.7000688155        5.2248871712        0.1512378265
 H         -0.8767952208        3.6914542442       -1.8190512155
 H          0.5157779181        4.5191408436       -2.6174914877
 H          1.9958826425        3.9817426656       -0.7124409935
 O          1.7719471707        1.4811819792       -1.9231675811
