  62
        -98.94759380
 C          1.7359909059        1.3732263638       -0.1985584509
 C          2.8250724509        0.7481001464        0.4499198029
 C          3.3210218591       -0.4866737478       -0.1697988021
 C          2.7243936049       -0.9496145195       -1.2837827227
 C          3.1144695437       -2.2065301275       -2.0058760431
 C          2.3015467159       -3.4110822813       -1.5137098983
 C          2.2688666973       -3.5557358746        0.0076649916
 H          1.6941262275       -2.7250381808        0.4253498886
 H          1.7061866464       -4.4648920814        0.2338899411
 C          3.6500263963       -3.6285508673        0.6738457704
 H          3.6318198381       -4.4232670870        1.4228386692
 H          4.4036599523       -3.8983072212       -0.0671931330
 C          4.0821377393       -2.3497474891        1.3939439026
 H          3.2775858335       -2.0171892412        2.0556691148
 H          4.9453064534       -2.5880807504        2.0215594375
 C          4.4815930552       -1.1754219090        0.4914003342
 H          5.2067235868       -1.5129275110       -0.2518779891
 H          4.9601852404       -0.4193605685        1.1210456545
 H          1.2704440161       -3.2993059754       -1.8574441613
 H          2.7181667410       -4.3159455586       -1.9611293504
 H          4.1776688864       -2.3881354219       -1.8590739722
 H          2.9225979760       -2.0625464775       -3.0707649125
 O          1.6707576921       -0.3306874934       -1.8704429601
 C          1.1218466820        0.8150681208       -1.3204851036
 O          0.1197153134        1.2455865791       -1.9228626682
 O          3.3567837009        1.2022877122        1.5015991826
 C          1.1398834958        2.6364803748        0.4016254751
 C         -0.3035484573        2.3647749627        0.7418546264
 C         -1.3644077331        3.1731171670        0.3557652111
 C         -2.6707985154        2.7887443773        0.6087677691
 C         -2.9466687173        1.5820879746        1.2262865921
 C         -1.8902217627        0.7828287708        1.6403975571
 C         -0.5862993622        1.1899950599        1.4284215547
 H          0.2291943901        0.5498482011        1.7429960399
 N         -2.1711761296       -0.5109259175        2.1757795685
 S         -1.9581178256       -1.6701595558        0.9590686807
 O         -2.2796644328       -2.9433948010        1.5699975426
 O         -0.6388250004       -1.5853012510        0.3708569730
 C         -3.2152357898       -1.2051756906       -0.2051678673
 C         -4.5012225906       -1.6632913944        0.0076451803
 C         -5.5070632251       -1.2593039149       -0.8546922188
 C         -5.2107046405       -0.4023292393       -1.9044788409
 C         -3.9148525743        0.0490136128       -2.1017218086
 C         -2.9010329800       -0.3526824060       -1.2449561255
 H         -1.8843830189       -0.0111988350       -1.3733329315
 H         -3.6793849565        0.7183191553       -2.9135387867
 H         -5.9939043989       -0.0828974314       -2.5738339278
 H         -6.5157996046       -1.6087862033       -0.7045018475
 H         -4.6788636191       -2.3274888754        0.8374228554
 H         -1.5571420795       -0.7548689795        2.9427978214
 H         -3.9588083732        1.2478695734        1.3857262993
 H         -3.4840616816        3.4235403601        0.2931441353
 H         -1.1681168213        4.0959171695       -0.1652518045
 H          1.6980039255        2.8133204594        1.3330419329
 C          1.3374344688        3.8176867171       -0.5236258517
 C          1.4118525257        5.2076343768        0.0325788482
 C          2.6464130801        4.5463658748       -0.4999186494
 H          3.0589178105        4.8946624407       -1.4347813321
 H          3.3910850534        4.2039507780        0.2038433346
 H          0.9789517831        6.0151470606       -0.5380193096
 H          1.3213980384        5.3234652087        1.1019585887
 H          0.8628812663        3.6733987681       -1.4876796629
