  62
        -98.93602882
 C         -2.5000008991       -0.9743825893        0.5891024210
 C         -2.7875995193        0.2790994811        1.1891413600
 C         -4.1422984294        0.8028884007        0.9897667796
 C         -5.0369305593        0.0809014200        0.2915924403
 C         -6.4620242994        0.4704707996        0.0066462900
 C         -6.6219350196        1.3988747185       -1.2052767908
 C         -6.1523254698        2.8383319988       -0.9903501720
 H         -6.5234743399        3.4250025180       -1.8330118925
 H         -6.6130516098        3.2387259995       -0.0868303423
 C         -4.6281498998        3.0033786891       -0.9092373322
 H         -4.1414219397        2.1136274788       -1.3156902115
 H         -4.3191745799        3.8475844886       -1.5297418629
 C         -4.0916696098        3.2577865103        0.4995815276
 H         -3.0013519598        3.3168488105        0.4458366475
 H         -4.4636959599        4.2168755706        0.8668956268
 C         -4.4553521496        2.1699183511        1.5184073985
 H         -5.5089289596        2.2420576212        1.7876266685
 H         -3.8516518095        2.3247319020        2.4161362983
 H         -6.0854248595        0.9635041579       -2.0513710704
 H         -7.6839187496        1.4207039981       -1.4603150607
 H         -6.8964475594        0.9421636702        0.8884301596
 H         -7.0031749192       -0.4562360807       -0.1955147692
 O         -4.7370293891       -1.1330895604       -0.2370397387
 C         -3.4626636390       -1.6825094401       -0.1319388883
 O         -3.3474583689       -2.7778133706       -0.7102628674
 O         -1.9469898493        0.9287069018        1.8686630394
 C         -1.0845581790       -1.4941030290        0.7607303214
 C         -0.2024756091       -1.0411875198       -0.3748129490
 C         -0.5786131892       -1.2227197610       -1.7025909088
 C          0.2527538407       -0.8096784317       -2.7274199692
 C          1.4740479906       -0.2202997213       -2.4513548498
 C          1.8534607507       -0.0236809501       -1.1286833699
 C          1.0118278508       -0.4300016094       -0.1019743096
 H          1.3142682508       -0.2606614785        0.9209303003
 N          3.0718742606        0.5980267704       -0.8162272505
 S          3.8989218607        0.0869704016        0.5648023299
 O          3.8920671510       -1.3568233783        0.6351841611
 O          3.3711979207        0.7839954225        1.7104035793
 C          5.5360864806        0.6883423316        0.1974029693
 C          6.4814297107       -0.1776718387       -0.3185037900
 C          7.7400374606        0.3130035112       -0.6295482305
 C          8.0287056104        1.6536666214       -0.4237493016
 C          7.0694547703        2.5104484017        0.0960072077
 C          5.8097755404        2.0264290318        0.4107170882
 H          5.0354664903        2.6510824420        0.8249862577
 H          7.2984310002        3.5514739619        0.2574605468
 H          9.0084748704        2.0331140914       -0.6672567020
 H          8.4891244507       -0.3508510890       -1.0300377900
 H          6.2141046809       -1.2132886389       -0.4544474591
 H          3.6858273405        0.6883267898       -1.6142113506
 H          2.1245354506        0.0935509282       -3.2535337201
 H         -0.0491247793       -0.9586686126       -3.7533353191
 H         -1.5235390791       -1.6981290513       -1.9192775084
 H         -0.7138098691       -1.0000217482        1.6741124210
 C         -1.0048668588       -2.9947475788        1.0024622327
 C         -0.4562465487       -3.9697488595        0.0090652335
 C          0.3284060013       -3.6410101084        1.2415876631
 H          0.4098386415       -4.3851474677        2.0196308138
 H          1.2106053412       -3.0260426283        1.1284506026
 H         -0.9381514685       -4.9328019296       -0.0614193957
 H         -0.1011718288       -3.5919917702       -0.9364500469
 H         -1.8310757287       -3.3480467284        1.6116401930
