  62
        -98.93648268
 C          1.8179732025        0.7710351873       -0.2234241491
 C          2.9106276676        0.9251212261        0.6668341655
 C          4.1555490237        0.2081874802        0.3387356326
 C          4.2007601454       -0.5344189532       -0.7815195365
 C          5.3413071833       -1.3556246231       -1.3274349370
 C          6.7354099181       -0.7107332168       -1.2877192933
 C          7.6749026037       -1.3540221429       -0.2661540193
 H          7.5192943692       -2.4347988442       -0.2833348811
 H          8.7061563871       -1.1689353141       -0.5750087601
 C          7.5241798446       -0.8451311625        1.1664661640
 H          8.1410080833       -1.4784812609        1.8084407815
 H          7.9222523739        0.1697376201        1.2332160604
 C          6.0947110412       -0.8390508061        1.7118340188
 H          5.5654596840       -1.7414527981        1.4074327507
 H          6.1536407611       -0.8580196154        2.8021748423
 C          5.2879836950        0.4045066361        1.3092907244
 H          4.8181447033        0.8402111427        2.1964444555
 H          5.9595619735        1.1738313176        0.9172935382
 H          7.1835950345       -0.8267357838       -2.2759026562
 H          6.6445271850        0.3577630762       -1.0988440892
 H          5.3606705406       -2.3135365168       -0.8015024857
 H          5.0631952586       -1.5748921824       -2.3608916825
 O          3.1253298476       -0.6583782435       -1.6085749702
 C          1.9168727028       -0.0295332704       -1.3599717126
 O          1.0485994703       -0.2653840852       -2.2241259496
 O          2.8496166071        1.6416359738        1.7017334943
 C          0.5360179483        1.5086777363        0.1270237766
 C         -0.4758266147        0.5588175707        0.7212557476
 C         -0.7366317036        0.5684103834        2.0867875101
 C         -1.6662117455       -0.2980443672        2.6352738763
 C         -2.3566088384       -1.1881517807        1.8327691031
 C         -2.0981203575       -1.2086229688        0.4681801566
 C         -1.1699679818       -0.3362222149       -0.0808098664
 H         -0.9590741628       -0.3742751210       -1.1387712353
 N         -2.8091323022       -2.1033795290       -0.3574091222
 S         -4.4796519911       -1.9720242956       -0.2900108218
 O         -4.9634677258       -2.6559338432        0.8833156283
 O         -4.9633829518       -2.4700171971       -1.5580319007
 C         -4.7785593112       -0.2199544050       -0.1402580237
 C         -4.5376969366        0.5746520980       -1.2434450073
 C         -4.6896751850        1.9462998208       -1.1269754664
 C         -5.0668188310        2.4983798193        0.0876008561
 C         -5.3065326685        1.6867003347        1.1851163556
 C         -5.1605708044        0.3131990988        1.0737706700
 H         -5.3395006015       -0.3534406946        1.9010927851
 H         -5.6016871283        2.1186124467        2.1276946089
 H         -5.1754602458        3.5677180483        0.1771424796
 H         -4.5100960372        2.5788205077       -1.9815288565
 H         -4.2474025675        0.1105814775       -2.1726420254
 H         -2.4924265466       -2.0867784353       -1.3165895345
 H         -3.0872763742       -1.8694749468        2.2380502001
 H         -1.8561417509       -0.2794672675        3.6974829116
 H         -0.1929753381        1.2547544186        2.7196027419
 H          0.8246704897        2.2203430590        0.9116087954
 C         -0.0444212274        2.2863502387       -1.0378522779
 C         -1.0597984537        3.3525107306       -0.7598395792
 C          0.3191909899        3.7293599423       -1.2096014848
 H          0.4517497354        4.1103761771       -2.2111654094
 H          0.9923327055        4.1651474833       -0.4858508615
 H         -1.8780410296        3.4758285905       -1.4516942981
 H         -1.3242490364        3.5309568633        0.2711203841
 H         -0.1634503101        1.6970938609       -1.9374805775
