  62
        -98.93918765
 C         -2.0934626771       -1.5270982561        0.0707356444
 C         -1.9011517887       -0.3693884454       -0.7194910772
 C         -3.0274117482        0.5806802996       -0.7603573521
 C         -4.1485462810        0.3089033934       -0.0707459512
 C         -5.4260968436        1.1081244130       -0.0070353003
 C         -5.3019817468        2.6307096246        0.1462156191
 C         -4.0805455443        3.1069636492        0.9459393561
 H         -4.4126223481        3.8036126068        1.7180247384
 H         -3.6096529351        2.2620500235        1.4512713104
 C         -3.0447233590        3.8254687559        0.0783705954
 H         -3.5691263862        4.4972128494       -0.6049314824
 H         -2.4154482674        4.4422919320        0.7241902643
 C         -2.1147989583        2.9174685065       -0.7261838596
 H         -1.5315408573        3.5527946339       -1.3967297451
 H         -1.4101343421        2.4184322446       -0.0555753072
 C         -2.8070048361        1.8302879154       -1.5638520668
 H         -3.7343499165        2.1963019739       -1.9981363185
 H         -2.1302904733        1.5492613044       -2.3754869965
 H         -5.2833568086        3.0952712477       -0.8387720878
 H         -6.2146938864        2.9734956442        0.6366151858
 H         -6.0118349565        0.8849536554       -0.9035987961
 H         -5.9746629113        0.6979643673        0.8443075542
 O         -4.2862877588       -0.8193604571        0.6825658494
 C         -3.2725441340       -1.7557615991        0.7777931155
 O         -3.5361629892       -2.7297332850        1.5123437824
 O         -0.8511893492       -0.1417603304       -1.3729779335
 C         -0.9957509469       -2.5714786000        0.1733696222
 C          0.2594440736       -1.9323407879        0.7142098318
 C          0.1995422631       -1.2850854951        1.9462410347
 C          1.3164841420       -0.6718904150        2.4795331630
 C          2.5182663824       -0.6815296379        1.7922235249
 C          2.5855228433       -1.3151792317        0.5594243246
 C          1.4641383848       -1.9442248615        0.0314896101
 H          1.5373754733       -2.4329330189       -0.9270856427
 N          3.7940006477       -1.3101189427       -0.1552707162
 S          4.6817788593        0.1073070727       -0.1931200558
 O          5.4166312622        0.0564158095       -1.4381554797
 O          5.4867050075        0.2049609453        1.0000806881
 C          3.4879737532        1.4337016356       -0.2205015266
 C          3.5898998228        2.4579200527        0.6990742068
 C          2.6508681306        3.4763633118        0.6749327259
 C          1.6268020788        3.4489580890       -0.2590368139
 C          1.5396095108        2.4143882096       -1.1775511025
 C          2.4794436933        1.3977999799       -1.1623156397
 H          2.4212151977        0.5827347002       -1.8649517313
 H          0.7344910787        2.3752419993       -1.8927860607
 H          0.8893896422        4.2362826131       -0.2704598351
 H          2.7161248897        4.2829261507        1.3875227275
 H          4.3950905324        2.4332881797        1.4155800747
 H          3.7328577983       -1.7288195581       -1.0717187637
 H          3.4010468081       -0.2117348423        2.1946887417
 H          1.2537613300       -0.1789081177        3.4378082301
 H         -0.7419106481       -1.2697656271        2.4790183202
 H         -1.3462736966       -3.3080529215        0.9104336315
 C         -0.8116268674       -3.2680973557       -1.1585168975
 C         -0.2263509924       -4.6466240014       -1.2107717106
 C         -1.6844139649       -4.4398312836       -1.4886440918
 H         -2.0380570343       -4.5504910222       -2.5028304075
 H         -2.3999778027       -4.7518360264       -0.7417262178
 H          0.4195937874       -4.9047321106       -2.0366381162
 H          0.0509506060       -5.1073398536       -0.2746897065
 H         -0.5790107535       -2.5806063472       -1.9636518475
