  62
        -98.93797554
 C         -2.2745764375       -0.7105177047       -0.3650033047
 C         -3.6129763614       -1.1268690034       -0.1383443185
 C         -4.4656162546       -0.2043603808        0.6216751395
 C         -3.9319466698        0.9306156209        1.1074838788
 C         -4.6924740255        1.9822374094        1.8609760005
 C         -5.2575596170        3.0476720711        0.9109787508
 C         -6.0047772714        2.4703601093       -0.2913293396
 H         -5.2965833003        1.9334943775       -0.9266672114
 H         -6.3833043168        3.3130716022       -0.8737989964
 C         -7.1677570371        1.5365035574        0.0718676961
 H         -8.0293100421        1.7928482614       -0.5482244256
 H         -7.4585012644        1.6939021293        1.1111215653
 C         -6.8828153901        0.0505189149       -0.1543828398
 H         -6.5029095279       -0.0994392732       -1.1682396689
 H         -7.8282746600       -0.4926941697       -0.0765049363
 C         -5.9010121993       -0.5978230683        0.8298412224
 H         -5.9399329318       -1.6801236979        0.6751547641
 H         -6.2136802076       -0.3865119832        1.8544937866
 H         -4.4284749556        3.6546686516        0.5398582011
 H         -5.9257771010        3.6969596486        1.4795376243
 H         -4.0103141225        2.4603659882        2.5660856660
 H         -5.5005379764        1.5099138142        2.4163838280
 O         -2.6322078204        1.2701750875        0.9237901365
 C         -1.7701176879        0.4731548748        0.1775979820
 O         -0.6197387573        0.9402371844        0.0853592441
 O         -4.0734090887       -2.2234972922       -0.5539337294
 C         -1.3825618696       -1.6549061932       -1.1533492064
 C         -0.1134098012       -1.9153335151       -0.3843735792
 C         -0.1459537012       -2.7808518159        0.7050406269
 C          0.9877300686       -3.0022578336        1.4636664999
 C          2.1753341088       -2.3619075377        1.1554776091
 C          2.2139245280       -1.4871364432        0.0786464122
 C          1.0767994710       -1.2773531122       -0.6916893152
 H          1.1101090953       -0.5800741491       -1.5142366523
 N          3.4146986658       -0.8308429576       -0.2524533383
 S          4.3818549776       -0.2669353828        1.0115675859
 O          5.1470871941       -1.3768017084        1.5255920143
 O          3.5904764160        0.4531859197        1.9838711156
 C          5.4578561324        0.8473527407        0.1306185571
 C          5.0631367161        2.1611785070       -0.0382835668
 C          5.8859913583        3.0219209763       -0.7474888191
 C          7.0809716389        2.5559177104       -1.2754322567
 C          7.4627772141        1.2345300648       -1.0981923355
 C          6.6451466491        0.3686269025       -0.3893257789
 H          6.9025351780       -0.6636236299       -0.2189953679
 H          8.3932115180        0.8771383562       -1.5088380379
 H          7.7189274386        3.2287824289       -1.8263868343
 H          5.5919327218        4.0501000057       -0.8849539955
 H          4.1294101647        2.4826393291        0.3962787940
 H          3.2577583429       -0.0958644112       -0.9291447963
 H          3.0634682678       -2.5131773448        1.7476813833
 H          0.9484896391       -3.6750598724        2.3075001151
 H         -1.0772150214       -3.2692549764        0.9582155794
 H         -1.9548384899       -2.5960547478       -1.1906880396
 C         -1.1348177424       -1.2448971778       -2.5971825415
 C         -2.2360238326       -0.6332802837       -3.4095152431
 C         -1.0332771905        0.1813399707       -3.0443569039
 H         -0.3236879714        0.4194120935       -3.8236317968
 H         -1.1387899257        0.9552112744       -2.3006003668
 H         -2.3577796398       -0.9459522182       -4.4354918413
 H         -3.1666232356       -0.4241595488       -2.9020362159
 H         -0.4960748713       -1.9585188976       -3.1090536568
