  62
        -98.94369219
 C         -1.8280767307       -0.6687008254       -0.2603477663
 C         -3.1044621908       -1.2783886695       -0.2326615551
 C         -4.1381162431       -0.5703428001        0.5344020950
 C         -3.8190006635        0.5729449214        1.1685971444
 C         -4.7853256511        1.4235340885        1.9398347543
 C         -5.4243056816        2.4913570512        1.0409118153
 C         -5.9830284194        1.9401492881       -0.2709378664
 H         -6.4366012464        2.7759201662       -0.8080798271
 H         -5.1569974742        1.5739464342       -0.8847956216
 C         -7.0193501621        0.8208854364       -0.0985292643
 H         -7.8599494650        1.0152807671       -0.7680441204
 H         -7.4089513500        0.8297108540        0.9201298794
 C         -6.5008991693       -0.5797058959       -0.4302563034
 H         -6.0272334782       -0.5710906178       -1.4152230301
 H         -7.3586326702       -1.2553708861       -0.4861068972
 C         -5.5107873564       -1.1806957162        0.5754774474
 H         -5.9290273302       -1.1231288450        1.5826449206
 H         -5.3772279760       -2.2360681235        0.3195160302
 H         -6.2226368471        2.9813407273        1.6012809229
 H         -4.6668895104        3.2415024117        0.8022853168
 H         -5.5563348398        0.7888857505        2.3724209657
 H         -4.2407222275        1.9181013190        2.7459942602
 O         -2.5755376987        1.1152765824        1.1391286614
 C         -1.5500964498        0.5170610607        0.4198876174
 O         -0.4664336679        1.1252162546        0.4688855557
 H          1.9720219178       -1.0204558128       -1.5751150384
 C          1.7781880447       -1.4102240300       -0.5876616216
 C          0.4729641962       -1.6226412824       -0.1696682163
 C          0.2637891676       -2.1382923073        1.1066875693
 C          1.3264815376       -2.4083503466        1.9472741239
 C          2.6272281258       -2.1839697126        1.5306003137
 C          2.8492559071       -1.6844413057        0.2554845829
 N          4.1767215762       -1.4683054950       -0.1732581545
 S          5.0551587800       -0.2547891913        0.5768236282
 O          6.3815338261       -0.3231925083        0.0071145739
 O          4.9602229876       -0.4226390632        2.0036343737
 C          4.2662074425        1.2616772814        0.0660043595
 C          3.0030128299        1.5472704418        0.5442431652
 C          2.3536028408        2.6827288133        0.0862946601
 C          2.9805821486        3.5141314098       -0.8290372659
 C          4.2541321731        3.2189304466       -1.2930963760
 C          4.9015189301        2.0768855911       -0.8507365303
 H          5.8863902786        1.8015796751       -1.1921860987
 H          4.7385715308        3.8700238337       -2.0031129064
 H          2.4704110346        4.3961924326       -1.1836367108
 H          1.3516883127        2.8808716815        0.4318070793
 H          2.5287971711        0.8883594246        1.2535472228
 H          4.2603672889       -1.3594555819       -1.1748960093
 H          3.4670519311       -2.3711564735        2.1791354466
 H          1.1423974444       -2.7998361588        2.9366058013
 H         -0.7503320318       -2.3172748380        1.4376637500
 C         -0.7152667156       -1.3293593492       -1.0519285144
 H         -1.1311947111       -2.2890904859       -1.3945225452
 C         -0.3714504299       -0.4876939732       -2.2643733776
 C          0.1034962460       -1.1344973807       -3.5306277639
 C         -1.2721096428       -0.5446255685       -3.4604439502
 H         -1.4724204517        0.3684628727       -4.0006055363
 H         -2.1163241408       -1.2170178687       -3.4122284751
 H          0.1913818729       -2.2105254338       -3.5415008284
 H          0.8471604246       -0.6240945868       -4.1243892130
 H          0.0417604026        0.4782071268       -1.9942811773
 O         -3.3646205669       -2.3649723265       -0.8174136619
