  62
        -98.93386672
 C         -2.5700951213       -0.9607787668        0.3330035664
 C         -2.6488912867        0.1817955857        1.1622395605
 C         -3.4263286435        1.3223116609        0.6491840678
 C         -3.9804158487        1.2441323621       -0.5754328763
 C         -4.8533437023        2.2193421495       -1.3374541179
 C         -4.9634536578        3.6778957411       -0.9004783380
 C         -3.6787317214        4.4908360020       -1.0548040708
 H         -3.4742319484        4.6186785172       -2.1207620098
 H         -3.8488421114        5.4815194297       -0.6276492847
 C         -2.4324757070        3.8819555671       -0.4168896003
 H         -2.1908304354        2.9384660408       -0.9111930631
 H         -1.5971380055        4.5632498182       -0.5999878173
 C         -2.5183346784        3.6465325282        1.0899934104
 H         -2.8010623202        4.5740634199        1.5914473108
 H         -1.5189799433        3.3701539860        1.4368713475
 C         -3.4850880886        2.5344603215        1.5339070581
 H         -4.5050745307        2.9033541434        1.6100036528
 H         -3.1815269347        2.2018647471        2.5308220018
 H         -5.3328637481        3.7395218499        0.1189036631
 H         -5.7224882723        4.1365782031       -1.5400115312
 H         -4.5040142850        2.1814087928       -2.3741301599
 H         -5.8576666764        1.7813281099       -1.3356138735
 O         -3.8479473484        0.1311112793       -1.3544070109
 C         -3.1414112236       -0.9856053107       -0.9381577422
 O         -3.1038739528       -1.9051150092       -1.7762478948
 O         -2.0946349638        0.2482138557        2.2936488881
 C         -1.7827189515       -2.1640426714        0.8232077413
 C         -0.5241033489       -2.2905694462       -0.0005445527
 C         -0.2570661903       -3.3592242832       -0.8443600629
 C          0.9105258067       -3.3851755166       -1.5887504796
 C          1.8315870398       -2.3578836774       -1.5058623469
 C          1.5794959636       -1.2883324022       -0.6549437506
 C          0.4108953197       -1.2653866579        0.0908176534
 H          0.2086500574       -0.4331168388        0.7537486008
 N          2.5044824537       -0.2292345107       -0.5672553536
 S          4.1354519049       -0.6534917337       -0.4306196093
 O          4.6356984064       -0.9698161332       -1.7448394462
 O          4.2974844577       -1.6842348141        0.5706890070
 C          4.8487863773        0.8788338722        0.1321281717
 C          5.1722191770        1.8451543890       -0.8013253043
 C          5.7103497944        3.0448005618       -0.3636443995
 C          5.9146590419        3.2569365738        0.9917805104
 C          5.5857211096        2.2772203075        1.9165336084
 C          5.0458910352        1.0755127366        1.4857511753
 H          4.7849492220        0.2825812684        2.1684689094
 H          5.7482178430        2.4438545661        2.9692448314
 H          6.3357827482        4.1905136077        1.3299243172
 H          5.9697972307        3.8081698631       -1.0793048227
 H          5.0053683798        1.6317062382       -1.8441662810
 H          2.2472931291        0.4328035646        0.1526881621
 H          2.7445193667       -2.3725097113       -2.0790074881
 H          1.1054835329       -4.2192703518       -2.2461698144
 H         -0.9650615210       -4.1667915019       -0.9286765256
 H         -1.4859555061       -1.9159340511        1.8525847518
 C         -2.6333385454       -3.4144533799        0.8513340114
 C         -2.2200891818       -4.5713307650        1.7097069981
 C         -3.4071047816       -3.7407339447        2.0921619665
 H         -4.3927064737       -4.1685082273        1.9863992790
 H         -3.3118515297       -3.0672101643        2.9313787355
 H         -2.3902495181       -5.5723404558        1.3436792294
 H         -1.3157063834       -4.4631287187        2.2893619431
 H         -3.1065788872       -3.6265438388       -0.0999132607
