  62
        -98.94628578
 C         -1.7996477348       -1.0748800263       -0.3027294173
 C         -3.1538265919       -1.3073751640        0.0378366251
 C         -4.1043317333       -0.2721817819       -0.3832511116
 C         -3.6641841937        0.8003772749       -1.0663911816
 C         -4.5139129696        1.9290030655       -1.5844112178
 C         -4.8054962394        3.0194568163       -0.5442030219
 C         -5.7989695740        2.6260928419        0.5497247724
 H         -6.0750367279        3.5419208434        1.0761660371
 H         -6.7050595104        2.2293724855        0.0907670111
 C         -5.2517564142        1.6173355803        1.5692780751
 H         -4.1615122200        1.5902273640        1.5052555147
 H         -5.5048343755        1.9468284253        2.5795233263
 C         -5.7923284953        0.1964541822        1.4080936455
 H         -6.8676613931        0.1892416714        1.5994388808
 H         -5.3136330606       -0.4399962785        2.1567916343
 C         -5.5379859608       -0.4232894423        0.0275865563
 H         -5.7560878139       -1.4925032283        0.0859991084
 H         -6.1966661317        0.0275573561       -0.7143499955
 H         -5.2110311197        3.8805587163       -1.0803285635
 H         -3.8625014745        3.3266745372       -0.0863727161
 H         -5.4531642031        1.5329742601       -1.9714274817
 H         -3.9604160967        2.3803398130       -2.4106409642
 O         -2.3555631751        0.9775334510       -1.3899327660
 C         -1.3905696051        0.0585548042       -1.0037412545
 O         -0.2313575357        0.3614420180       -1.3427044745
 O         -3.5468840851       -2.3273137979        0.6647594519
 C         -0.7524365890       -2.0941501128        0.1075319999
 C          0.2942304608       -1.4386908622        0.9733884008
 C         -0.1167916718       -0.7518383609        2.1142345073
 C          0.8019506961       -0.1322282263        2.9377863816
 C          2.1528305667       -0.1765579537        2.6370189005
 C          2.5745217661       -0.8629241530        1.5059620471
 C          1.6486425251       -1.4981897744        0.6875357022
 H          2.0078783297       -2.0176268544       -0.1843434103
 N          3.9432437229       -0.9497045811        1.1868979476
 S          4.4838548224       -0.4177686666       -0.3065472937
 O          3.8489382022       -1.1690588893       -1.3568302700
 O          5.9252119640       -0.5206572323       -0.2287637950
 C          4.0178988821        1.3031735578       -0.3664875725
 C          4.9693375570        2.2512658681       -0.0401386507
 C          4.6086411213        3.5882654062       -0.0220048738
 C          3.3038657595        3.9531783900       -0.3192367196
 C          2.3615096018        2.9886457409       -0.6392436534
 C          2.7149339268        1.6476980122       -0.6644981356
 H          1.9886359843        0.8904090279       -0.9149111229
 H          1.3436076229        3.2593863413       -0.8717688186
 H          3.0192494888        4.9935905038       -0.3032213150
 H          5.3416789521        4.3394944812        0.2244627810
 H          5.9719205279        1.9210385066        0.1794037242
 H          4.5501142452       -0.5806993265        1.9061737304
 H          2.8736667935        0.3117823815        3.2752403178
 H          0.4660950581        0.3952005811        3.8177835957
 H         -1.1730138548       -0.7123394882        2.3443157958
 H         -1.2897805518       -2.8342577031        0.7193082839
 C         -0.1860668472       -2.7936676340       -1.1096327445
 C          0.3685337706       -4.1804643064       -0.9883594854
 C         -0.9326684002       -3.9525845017       -1.6958096725
 H         -0.9627993531       -4.0564809063       -2.7701174794
 H         -1.8442446961       -4.2558706812       -1.2016962280
 H          1.2368677184       -4.4389315024       -1.5758451331
 H          0.3416355097       -4.6457697205       -0.0145408581
 H          0.2983666862       -2.1123837105       -1.8011893917
