  62
        -98.93914818
 C         -2.2446273576       -0.1024086615        0.2800028627
 C         -3.2804441175       -0.7135768963       -0.4689829614
 C         -4.4324188906        0.1427707105       -0.7841811904
 C         -4.4418929554        1.4315686637       -0.4019374282
 C         -5.5311612052        2.4325253266       -0.6763939463
 C         -6.6912430461        2.3831165142        0.3275339256
 C         -7.6142028281        1.1708364421        0.1967579920
 H         -8.4961816659        1.3729126335        0.8078073197
 H         -7.9482285778        1.0800620801       -0.8372216026
 C         -6.9888587709       -0.1536770423        0.6561580634
 H         -7.6994621572       -0.6923627944        1.2870974270
 H         -6.1090238749        0.0523169327        1.2702016069
 C         -6.5891646139       -1.0939417562       -0.4809578584
 H         -7.4818532443       -1.4132640431       -1.0232647077
 H         -6.1244320338       -1.9812948498       -0.0439274397
 C         -5.5997038535       -0.4864617332       -1.4837977018
 H         -5.2144591572       -1.2900839313       -2.1157808105
 H         -6.1041020488        0.2447026344       -2.1147787964
 H         -7.2886705181        3.2856267516        0.1790822318
 H         -6.2791250056        2.4203056778        1.3386576554
 H         -5.9157189293        2.2882348863       -1.6863829042
 H         -5.0669103811        3.4193393751       -0.6179898360
 O         -3.4132514365        1.9929526824        0.2882592390
 C         -2.3138726707        1.2411704805        0.6629424565
 O         -1.4708134671        1.8760016827        1.3303503008
 O         -3.2710574152       -1.9079818427       -0.8673221689
 C         -0.9917078051       -0.8377666453        0.7279101681
 C          0.0286837336       -0.9364359045       -0.3813619895
 C         -0.2172973163       -1.6710896078       -1.5369225952
 C          0.7502972353       -1.7718287090       -2.5193551708
 C          1.9833498065       -1.1639416851       -2.3622017002
 C          2.2347693172       -0.4196245916       -1.2156714102
 C          1.2547534604       -0.3032897415       -0.2398281391
 H          1.4603995066        0.2885539680        0.6408397004
 N          3.4669030957        0.2282878409       -1.0359598196
 S          4.0933792237        0.3395455041        0.5274317121
 O          3.8776486313       -0.9016191931        1.2363287201
 O          3.5769302622        1.5312332801        1.1530426519
 C          5.8276747261        0.5495533655        0.1690038829
 C          6.3004262451        1.8139047977       -0.1280558831
 C          7.6421823703        1.9713757275       -0.4372407633
 C          8.4837162947        0.8687564111       -0.4452537702
 C          7.9952634839       -0.3935119005       -0.1429510801
 C          6.6542221526       -0.5583607228        0.1661082225
 H          6.2317874070       -1.5181931465        0.4165576892
 H          8.6525626205       -1.2480321596       -0.1461635903
 H          9.5275881739        0.9947715442       -0.6853750860
 H          8.0260363814        2.9516828277       -0.6692909779
 H          5.6109806443        2.6416788359       -0.0993330568
 H          4.1664781729       -0.0573070743       -1.7072968100
 H          2.7429894932       -1.2569641844       -3.1235440500
 H          0.5469788076       -2.3427668708       -3.4128113726
 H         -1.1751256488       -2.1527690306       -1.6576912332
 H         -0.5512783590       -0.2162798915        1.5203804697
 C         -1.2742924577       -2.2129270929        1.3042093362
 C         -0.2145115813       -2.8741310884        2.1311321653
 C         -1.4658115898       -2.3656673578        2.7812395117
 H         -2.1910773726       -3.0827654306        3.1356684896
 H         -1.3983281299       -1.4748952539        3.3895882833
 H         -0.0809929965       -3.9411441808        2.0392027788
 H          0.7052774953       -2.3301393072        2.2934714225
 H         -1.8722060529       -2.8381195687        0.6546667638
