  62
        -98.93717004
 C          2.4206237712        1.1310625071       -0.0850461655
 C          3.5119187374        0.7749732369        0.7423816971
 C          4.4798160404       -0.1968354983        0.1988921896
 C          4.2745685895       -0.6890539157       -1.0370446403
 C          5.0888207250       -1.7161986272       -1.7775470018
 C          4.8411004055       -3.1458857847       -1.2690819906
 C          4.7931885651       -3.2894815010        0.2499034324
 H          4.0127478143       -2.6377713435        0.6471747885
 H          4.5017033607       -4.3184029512        0.4767594793
 C          6.1083785697       -3.0073423610        0.9723008638
 H          6.8747382794       -3.6914327687        0.6009528848
 H          5.9507390043       -3.2290018784        2.0309538700
 C          6.6400850495       -1.5769192965        0.8613183991
 H          7.1032655899       -1.4046958799       -0.1064644377
 H          7.4319756741       -1.4656205184        1.6078861109
 C          5.6112214971       -0.4894806529        1.1548756151
 H          5.1413402890       -0.6931130399        2.1238002404
 H          6.1391316694        0.4629102650        1.2864062849
 H          5.6185747125       -3.7955389765       -1.6744835370
 H          3.8795269668       -3.4820716431       -1.6644860437
 H          6.1436542840       -1.4633379816       -1.7268740607
 H          4.7836795786       -1.6622889762       -2.8249089815
 O          3.2065212813       -0.3183784429       -1.7986548905
 C          2.2566100747        0.5840782405       -1.3568743332
 O          1.3484953956        0.8098200035       -2.1798495702
 O          3.6760100223        1.2463524993        1.9000960419
 C          1.3949885671        2.1099215584        0.4621355684
 C          0.1122122990        1.3580194908        0.7179390940
 C         -0.0122767847        0.6109506452        1.8864840787
 C         -1.1537091026       -0.1274265625        2.1339574479
 C         -2.1912428023       -0.1465051830        1.2176594818
 C         -2.0762880035        0.5923690059        0.0483093666
 C         -0.9346143534        1.3481200971       -0.1901680615
 H         -0.8527923618        1.9068730677       -1.1091234640
 N         -3.1064400123        0.5524344042       -0.9028762717
 S         -4.7007000282        0.6878375665       -0.4139478129
 O         -5.4152487392        1.1604577235       -1.5795976022
 O         -4.8238846468        1.4895180347        0.7815994119
 C         -5.1899318781       -0.9907925073       -0.0756773149
 C         -5.7734320909       -1.3083596552        1.1351542758
 C         -6.1549769420       -2.6198933980        1.3721099165
 C         -5.9489185953       -3.5850503394        0.3984527005
 C         -5.3643884272       -3.2492571188       -0.8137565665
 C         -4.9816926499       -1.9399315474       -1.0571095406
 H         -4.5255474877       -1.6391347421       -1.9857081596
 H         -5.2049485970       -4.0024458526       -1.5686030810
 H         -6.2448259434       -4.6053447546        0.5849855896
 H         -6.6096671649       -2.8830619033        2.3136467445
 H         -5.9084724314       -0.5260868107        1.8651346314
 H         -2.9188592633        1.0876432118       -1.7373640460
 H         -3.0823382121       -0.7240522015        1.4014682916
 H         -1.2370683130       -0.6985217426        3.0461450771
 H          0.8047458621        0.6126443709        2.5945856944
 H          1.7953989834        2.4366968041        1.4314100979
 C          1.2292499107        3.3228481954       -0.4286291265
 C          0.5224940861        4.5318471215        0.1052526032
 C          2.0032088409        4.5682597646       -0.1220533137
 H          2.3847002885        5.1529109401       -0.9457459890
 H          2.6531877306        4.5535008598        0.7404540149
 H         -0.1151691611        5.0941856831       -0.5599404257
 H          0.1650318723        4.4897028416        1.1231443430
 H          1.0904968777        3.0744886738       -1.4738210282
