  62
        -98.94045686
 C         -2.4752592153       -1.1919423836        0.0221978228
 C         -2.4617324607        0.0193901240       -0.7098497902
 C         -3.7779260396        0.6180633056       -0.9772723774
 C         -4.8882618138       -0.0102060341       -0.5490652755
 C         -6.2855280739        0.5149418134       -0.7053350677
 C         -6.7001869264        1.3578273048        0.5089278531
 C         -5.6702855169        2.4149021618        0.9074409801
 H         -6.0820805579        2.9670666515        1.7549408658
 H         -4.7639037387        1.9161245675        1.2584233854
 C         -5.3030798566        3.3976540551       -0.2131265424
 H         -6.0640499941        3.3709059188       -0.9938122099
 H         -5.2945403613        4.4095622284        0.1972446336
 C         -3.9275474447        3.1603147680       -0.8396185963
 H         -3.1711576020        3.0916651212       -0.0533143223
 H         -3.6795380801        4.0286193158       -1.4559731502
 C         -3.8055744967        1.9178500486       -1.7310597281
 H         -2.8474504291        1.9785174406       -2.2560553477
 H         -4.6053188327        1.9171661676       -2.4745686814
 H         -6.8504677170        0.6888126793        1.3592993017
 H         -7.6524306870        1.8414942487        0.2842319390
 H         -6.3436770985        1.1122535635       -1.6130129985
 H         -6.9639419266       -0.3349539509       -0.7955277663
 O         -4.8605406309       -1.1862544471        0.1288982164
 C         -3.6585495837       -1.7990153099        0.4419493604
 O         -3.7733137723       -2.8596091524        1.0889509752
 O         -1.4073253569        0.5752750378       -1.1170988099
 C         -1.1677729892       -1.8846048486        0.3589774818
 C         -0.2427820654       -0.9393811113        1.0866645633
 C         -0.7422802849       -0.1878004414        2.1475072041
 C          0.0708537396        0.6926158220        2.8334847080
 C          1.4002101011        0.8410154955        2.4789031540
 C          1.9153788304        0.0798302796        1.4368064605
 C          1.0960093189       -0.8084390796        0.7531004956
 H          1.5190178815       -1.3803701713       -0.0549210263
 N          3.2775972422        0.1719459326        1.0995999748
 S          3.7616733441        0.0505554662       -0.5132372927
 O          3.0555299019        1.0118254652       -1.3301373091
 O          3.6812787458       -1.3274466972       -0.9261583153
 C          5.4734770834        0.5250498829       -0.3475798974
 C          6.3890302836       -0.4263871406        0.0604402586
 C          7.7148807770       -0.0558463475        0.2191247955
 C          8.1014598310        1.2525180502       -0.0311592232
 C          7.1720832665        2.1958482614       -0.4428217474
 C          5.8441066849        1.8319283765       -0.6021145173
 H          5.0889538580        2.5285071957       -0.9298545699
 H          7.4760276869        3.2111868047       -0.6405781056
 H          9.1341215853        1.5382788103        0.0923702162
 H          8.4409233876       -0.7871971789        0.5357369413
 H          6.0438706277       -1.4321914463        0.2338648799
 H          3.7281730612        0.9625048200        1.5411939053
 H          2.0332849683        1.5372489903        3.0079644384
 H         -0.3345639341        1.2759917220        3.6467712244
 H         -1.7840645347       -0.2974744583        2.4188653542
 H         -1.4249436101       -2.7072759383        1.0432233416
 C         -0.5558423982       -2.4725941767       -0.8958166713
 C          0.2928820269       -3.7047103536       -0.8174220706
 C         -1.0772058124       -3.7754160851       -1.4200887610
 H         -1.1676505416       -3.9021471988       -2.4884904014
 H         -1.8618904204       -4.2560942378       -0.8537799846
 H          1.1515852273       -3.7781741815       -1.4681922910
 H          0.4405480410       -4.1467451636        0.1564560983
 H         -0.2848216105       -1.7132318079       -1.6221578294
