  62
        -98.94490217
 C          2.0202543457        1.4331252186        0.1065000441
 C          1.9987461978        0.5712813460       -1.0166547411
 C          2.8684210777       -0.6125665746       -0.9362310859
 C          3.6237451672       -0.8121392806        0.1582842303
 C          4.5102898403       -2.0007942574        0.3881091103
 C          3.7594486376       -3.1256659361        1.1143205556
 C          2.4023308765       -3.4640837168        0.4971291089
 H          1.7300679544       -2.6126148424        0.6245796708
 H          1.9866323124       -4.2949426018        1.0706823422
 C          2.4570940504       -3.8485224635       -0.9880372951
 H          1.8351717999       -4.7323307399       -1.1462358489
 H          3.4764192499       -4.1217716180       -1.2632604489
 C          1.9497497897       -2.7663327678       -1.9432637743
 H          0.9705629611       -2.4109669471       -1.6124624841
 H          1.8202733136       -3.2174629537       -2.9308236401
 C          2.8665294861       -1.5484969351       -2.1124371212
 H          2.4937650105       -0.9659429800       -2.9599722346
 H          3.8810492812       -1.8785163965       -2.3446480125
 H          3.5969743428       -2.8196714073        2.1502413159
 H          4.3927622694       -4.0147141977        1.1180690239
 H          5.3552244378       -1.6846356150        1.0022393037
 H          4.8850570806       -2.3583466504       -0.5690770096
 O          3.6293348582        0.0415529844        1.2125828075
 C          2.8329542177        1.1717404718        1.2158343702
 O          2.9377251645        1.8647081387        2.2472959656
 O          1.3009339352        0.7573257792       -2.0502111044
 C          1.1899146594        2.7056420974        0.1966076051
 C         -0.2542852108        2.3919481389        0.5083525716
 C         -0.7952219268        2.7089776653        1.7491288050
 C         -2.1185467711        2.4218336877        2.0353022533
 C         -2.9273881258        1.8099768809        1.0943522335
 C         -2.3904609314        1.4710148722       -0.1412210151
 C         -1.0653479170        1.7674884762       -0.4286319634
 H         -0.6497911215        1.4916278373       -1.3860532132
 N         -3.1920928772        0.8422547466       -1.1116715832
 S         -4.1091360649       -0.4870264321       -0.6810572492
 O         -4.4888222296       -1.1055713425       -1.9302072497
 O         -5.1896614995       -0.0621119916        0.1733197520
 C         -3.0074212692       -1.5581338947        0.2235010108
 C         -2.1915906981       -2.4136754679       -0.4902295958
 C         -1.3090669004       -3.2296135499        0.1983284452
 C         -1.2447000341       -3.1628802843        1.5818349460
 C         -2.0667025807       -2.2955213454        2.2838098128
 C         -2.9608813825       -1.4862212965        1.6011427420
 H         -3.6271494898       -0.8127461062        2.1137499144
 H         -2.0151245024       -2.2474273902        3.3596814525
 H         -0.5515618554       -3.7937776328        2.1155640958
 H         -0.6731997921       -3.9113815076       -0.3431251078
 H         -2.2736946657       -2.4387746939       -1.5652580054
 H         -2.6991915575        0.6633887136       -1.9749476080
 H         -3.9630786084        1.5904046897        1.2972469233
 H         -2.5268954542        2.6815759862        3.0002087269
 H         -0.1665701344        3.1761826761        2.4934521685
 H          1.6005840209        3.2623174310        1.0491980984
 C          1.3133199725        3.5739134820       -1.0410047100
 C          0.9727210442        5.0291634717       -0.9425386160
 C          2.4000741046        4.6022929874       -1.1067210850
 H          2.8875463232        4.7773239649       -2.0541424767
 H          3.0597709958        4.6877088037       -0.2552044597
 H          0.4770470609        5.5002008663       -1.7775079755
 H          0.6647929823        5.4065044581        0.0209597970
 H          1.0644132886        3.0593571066       -1.9594253975
