  62
        -98.93311140
 C         -2.4368381469       -1.0232897549        0.2391466368
 C         -3.1023138814       -0.0613177067        1.0356056644
 C         -3.4983083262        1.2024758295        0.3843819394
 C         -3.1726709208        1.3900366895       -0.9078816356
 C         -3.4186823854        2.6021089543       -1.7663664545
 C         -2.4471974796        3.7508250854       -1.4525978089
 C         -2.2416156992        4.0292393808        0.0340828200
 H         -1.4661218100        4.7948615428        0.1220194481
 H         -1.8566476828        3.1276341056        0.5149296054
 C         -3.4770037853        4.5233927644        0.7836796183
 H         -3.8375214681        5.4399641652        0.3118575978
 H         -3.1591387709        4.7751047332        1.7986437377
 C         -4.6421382853        3.5359219697        0.8836516532
 H         -5.2078826507        3.4995275276       -0.0433805157
 H         -5.3247442372        3.9159877863        1.6491645033
 C         -4.2481543237        2.1266127257        1.3139079820
 H         -5.1565307377        1.5823928893        1.5994129107
 H         -3.6492557256        2.1846300341        2.2299606498
 H         -2.8082778757        4.6532514526       -1.9490248568
 H         -1.4732002865        3.4955468248       -1.8789532377
 H         -4.4497742180        2.9286192597       -1.6690775190
 H         -3.2628171891        2.2894431419       -2.8013004161
 O         -2.4922678576        0.4525008379       -1.6273582426
 C         -2.0952235257       -0.7588194767       -1.0880013502
 O         -1.4662310401       -1.4841844120       -1.8813454416
 O         -3.3486575941       -0.2403794920        2.2596102063
 C         -1.9959999276       -2.3136873482        0.9083045357
 C         -0.5433498230       -2.5672355446        0.5916324988
 C         -0.0638701938       -3.7266100227       -0.0016417164
 C          1.2810610992       -3.8548770194       -0.3053807995
 C          2.1734878144       -2.8361514456       -0.0282453353
 C          1.7040261449       -1.6745220079        0.5686678775
 C          0.3621396357       -1.5545980794        0.8856231897
 H         -0.0007749382       -0.6394236612        1.3406598582
 N          2.6091423631       -0.6160387134        0.8349488764
 S          3.0927052055        0.2723667527       -0.5231466633
 O          2.2223764708        1.4211481072       -0.6797050492
 O          3.2141296443       -0.6128277601       -1.6518911729
 C          4.7119124632        0.8140477356       -0.0096305094
 C          4.9258234605        2.1328489759        0.3384157732
 C          6.1897656579        2.5188504063        0.7578755834
 C          7.2104721944        1.5832870747        0.8252850123
 C          6.9793449172        0.2613288844        0.4739277657
 C          5.7189393295       -0.1295804283        0.0526481998
 H          5.4947070936       -1.1428728013       -0.2363001382
 H          7.7755159971       -0.4635603801        0.5274062177
 H          8.1925192223        1.8861953038        1.1526081001
 H          6.3720044852        3.5459899324        1.0302305742
 H          4.1035199494        2.8263807619        0.2661576828
 H          2.2133926247        0.0470338150        1.4897102989
 H          3.2155466825       -2.9162384305       -0.2894934945
 H          1.6358853337       -4.7587185910       -0.7770391907
 H         -0.7475438125       -4.5196737487       -0.2565060228
 H         -2.0758663121       -2.0991726285        1.9878175426
 C         -2.8981971705       -3.5077584788        0.6394434277
 C         -4.3428127047       -3.3192867045        0.2875852207
 C         -3.3863227978       -3.8521315143       -0.7345822425
 H         -3.4573627011       -4.8954153815       -1.0057241395
 H         -3.0848394445       -3.2095056873       -1.5466547000
 H         -5.0678173640       -3.9937449930        0.7177741384
 H         -4.7016190210       -2.3066764385        0.1719981320
 H         -2.6714605884       -4.3409794661        1.2974785815
