  62
        -98.94682191
 C         -1.1524212454       -1.1569427493       -0.1698157164
 C         -2.0011847510       -0.7997713375        0.9121977437
 C         -2.8280376771        0.3986507556        0.7296874721
 C         -2.7254722049        1.0954251368       -0.4163134839
 C         -3.5533340195        2.2969207831       -0.7675790204
 C         -4.8309949809        1.8888782663       -1.5147035497
 C         -5.6126574033        0.7652124544       -0.8339473021
 H         -6.5088116131        0.5842932029       -1.4315083085
 H         -5.0184200496       -0.1509832186       -0.8621404059
 C         -6.0171128255        1.0614466742        0.6170735304
 H         -5.9561873108        2.1335588269        0.8076465971
 H         -7.0595176817        0.7673431325        0.7567162155
 C         -5.1983569615        0.3114072228        1.6696341419
 H         -5.1837631744       -0.7548387368        1.4302050024
 H         -5.7015920736        0.4226212532        2.6338155588
 C         -3.7506246404        0.7850089767        1.8511285105
 H         -3.7371242789        1.8653271459        2.0092522587
 H         -3.3532318276        0.3003332193        2.7474218979
 H         -5.4688549311        2.7689988205       -1.6147723429
 H         -4.5546785940        1.5542600522       -2.5172841924
 H         -3.8120214089        2.8358070364        0.1418810680
 H         -2.9625692396        2.9495039524       -1.4120835445
 O         -1.8776602770        0.7478965327       -1.4135424002
 C         -1.0754636473       -0.3787675709       -1.3249443864
 O         -0.3613248655       -0.5512095440       -2.3342502961
 H          1.5271896471       -1.0573984318       -1.4046583045
 C          1.9075414999       -1.3720113940       -0.4443589269
 C          1.0868422127       -2.0950050637        0.4096222288
 C          1.5893480675       -2.4719439930        1.6493299285
 C          2.8790814043       -2.1332564554        2.0225480642
 C          3.6892275737       -1.4001247526        1.1732569618
 C          3.1907605149       -1.0139084336       -0.0633579590
 N          3.9837842204       -0.2027946625       -0.9123602805
 S          4.1649504254        1.3626708556       -0.3380640798
 O          4.6281691292        2.1486232074       -1.4586011921
 O          5.0268212909        1.3295498441        0.8160175252
 C          2.5245756113        1.8736489340        0.1462802311
 C          1.7139108895        2.4817943908       -0.7903286027
 C          0.4238915572        2.8364152772       -0.4316353566
 C         -0.0370864906        2.5603095323        0.8459417888
 C          0.7841963884        1.9350608842        1.7708572029
 C          2.0798398823        1.5908234436        1.4224413536
 H          2.7510456434        1.1157071641        2.1189120563
 H          0.4159851513        1.7113283334        2.7592529816
 H         -1.0443064401        2.8294094800        1.1224468451
 H         -0.2195047713        3.3161737072       -1.1516719409
 H          2.1071937876        2.6784217318       -1.7750656709
 H          3.6095331932       -0.1568362114       -1.8511133317
 H          4.6845678119       -1.0985614135        1.4566919454
 H          3.2549755539       -2.4355308805        2.9881157491
 H          0.9548165101       -3.0196149877        2.3305802783
 C         -0.3301063243       -2.4239443778        0.0076677469
 H         -0.7999401580       -2.9541277904        0.8467514919
 C         -0.3552152778       -3.3321096793       -1.2064160715
 C         -0.0357424986       -4.7854985116       -1.0324341671
 C         -1.4401581607       -4.3571878059       -1.3331772548
 H         -1.8454400464       -4.5596966213       -2.3132294288
 H         -2.1710606737       -4.4129406691       -0.5395558056
 H          0.5268692509       -5.2851307817       -1.8059764376
 H          0.1848322267       -5.1333219872       -0.0346440446
 H         -0.0218838426       -2.8484667251       -2.1153044289
 O         -2.0695886845       -1.4639548757        1.9798378117
