  62
        -98.93514948
 C          1.6969207357        0.0774172954        0.3811784627
 C          2.8263005852        0.7608335901        0.8990489713
 C          4.1361828398        0.1142676030        0.7163233829
 C          4.1965471889       -1.0880355693        0.1198697741
 C          5.4071310811       -1.9488541433       -0.1425224232
 C          6.6799889260       -1.2502546605       -0.6388557147
 C          6.4407093490       -0.0343779501       -1.5460217445
 H          5.3922397974        0.0078539048       -1.8464596848
 H          7.0344088453       -0.1474726975       -2.4550877884
 C          6.8374456680        1.2893096266       -0.8877639691
 H          6.9949408111        2.0365786653       -1.6693065067
 H          7.7897787667        1.1513658064       -0.3711732914
 C          5.8163705252        1.8667934863        0.0916782946
 H          4.9385276049        2.2218010481       -0.4552763989
 H          6.2668193402        2.7387575953        0.5718016910
 C          5.3266699699        0.9015293395        1.1834474716
 H          4.9776077432        1.5005877761        2.0289012863
 H          6.1295112272        0.2531358426        1.5254383712
 H          7.2594393801       -2.0001124430       -1.1802209036
 H          7.2840722839       -0.9436928789        0.2138704964
 H          5.6359658103       -2.5012790253        0.7736023404
 H          5.0783431554       -2.6811196857       -0.8841335912
 O          3.0803297617       -1.7351661219       -0.3177056866
 C          1.8100231127       -1.1824872570       -0.2063031366
 O          0.9079269369       -1.9125672862       -0.6562241144
 H         -1.8304459096       -0.3672419423       -0.7508434120
 C         -1.7366295778       -0.6777080165        0.2755621665
 C         -0.6796863005       -0.2323199122        1.0524044982
 C         -0.5587401125       -0.7119051100        2.3543861507
 C         -1.4683972248       -1.6195083428        2.8602096386
 C         -2.5315421183       -2.0517985089        2.0863548794
 C         -2.6592766775       -1.5814584110        0.7854896170
 N         -3.7241117774       -1.9988167908       -0.0232444926
 S         -4.3970133806       -0.9578399431       -1.1366967332
 O         -5.7485386447       -1.4475959855       -1.3128870176
 O         -3.5978517367       -0.8921835852       -2.3339709036
 C         -4.4306822425        0.6392721298       -0.3390044308
 C         -3.8730321256        1.7291591731       -0.9751139703
 C         -3.9013258833        2.9632154018       -0.3448565089
 C         -4.4823994302        3.0844824842        0.9076067939
 C         -5.0446762471        1.9814117239        1.5317003212
 C         -5.0219627080        0.7465528324        0.9043256626
 H         -5.4577743909       -0.1265812161        1.3615168542
 H         -5.4982731431        2.0799783268        2.5046488910
 H         -4.4975957531        4.0445493450        1.3988238672
 H         -3.4665261680        3.8224289218       -0.8306999663
 H         -3.4245851400        1.5879556748       -1.9457233435
 H         -4.4110973533       -2.5839525972        0.4272509687
 H         -3.2457708354       -2.7593224676        2.4791176581
 H         -1.3562188824       -1.9891272464        3.8682949991
 H          0.2696914079       -0.3714165079        2.9604562363
 C          0.3438698797        0.7471251575        0.5403564533
 H          0.5087918790        1.5052057820        1.3242283214
 C         -0.1292347118        1.4989642246       -0.6945420271
 C          0.8456400343        2.1531738910       -1.6255782769
 C          0.0549559338        0.9655310014       -2.0821830804
 H         -0.7389568022        1.1130014835       -2.8005494472
 H          0.5595755102        0.0181530070       -2.1930808948
 H          1.8982608768        2.0163016859       -1.4245587597
 H          0.6007302689        3.1236516964       -2.0298383122
 H         -1.0507179175        2.0406632230       -0.5026243175
 O          2.7428045220        1.8631809354        1.5021255930
