  62
        -98.94090307
 C         -2.6611417481       -1.1187185825       -0.4061656033
 C         -2.1325650355        0.0345588039       -1.0354966593
 C         -2.9715513373        1.2409542767       -0.9714847681
 C         -4.1614021796        1.1890964073       -0.3464221732
 C         -5.0873462872        2.3554064328       -0.1614521639
 C         -4.8047892188        3.0843758503        1.1596133535
 C         -3.3280463050        3.4120281121        1.3824112886
 H         -3.2539237849        3.9530849266        2.3283795777
 H         -2.7671468200        2.4817416219        1.5032218085
 C         -2.6867889550        4.2469553254        0.2652680537
 H         -3.4638023306        4.7283000509       -0.3299099273
 H         -2.0885027206        5.0387915146        0.7208916220
 C         -1.7540020636        3.4615131418       -0.6586939819
 H         -1.1936715269        4.1795983965       -1.2636782247
 H         -1.0283319015        2.9040581850       -0.0594131005
 C         -2.4394515219        2.4858326195       -1.6239016387
 H         -3.2309189278        3.0038449429       -2.1692018543
 H         -1.6880474043        2.1487368389       -2.3438005845
 H         -5.3895141031        4.0058333912        1.1775290701
 H         -5.1418063432        2.4514131722        1.9837271569
 H         -4.9721908669        3.0408768829       -0.9986831214
 H         -6.1123427499        1.9812871913       -0.1470569177
 O         -4.6399342534        0.0613100624        0.2380058162
 C         -3.8988311162       -1.1070818108        0.2420932207
 O         -4.4435820271       -2.0570038030        0.8392221455
 O         -1.0239623435        0.0686930728       -1.6320567314
 C         -1.8780314560       -2.4222910015       -0.3537884029
 C         -0.6884664358       -2.2003317401        0.5483923336
 C         -0.8591425519       -2.2836377194        1.9275872040
 C          0.1859312143       -1.9987927189        2.7863375786
 C          1.4194647077       -1.6144264532        2.2893788957
 C          1.5953365565       -1.5188048127        0.9160311997
 C          0.5506048698       -1.8263450754        0.0537110966
 H          0.6953853999       -1.7316474166       -1.0105817186
 N          2.8426994215       -1.1158546901        0.3972487053
 S          3.5328114992        0.2531863132        1.1115447255
 O          4.2156533265       -0.1603179315        2.3129829709
 O          2.5386730403        1.2897537005        1.2799890300
 C          4.7242565574        0.7188450519       -0.1285001567
 C          5.9909091490        0.1686130730       -0.0827792810
 C          6.9038588672        0.5085260479       -1.0684555121
 C          6.5362600377        1.3859644107       -2.0776626568
 C          5.2607657842        1.9298046307       -2.1101551524
 C          4.3423151329        1.5934859092       -1.1281130254
 H          3.3420373890        1.9973759964       -1.1109926074
 H          4.9775778225        2.6125265010       -2.8951554512
 H          7.2481873206        1.6499677886       -2.8436720599
 H          7.8968639530        0.0895503279       -1.0465268389
 H          6.2320808970       -0.5020021778        0.7252419995
 H          2.7946690753       -0.9921974890       -0.6059955721
 H          2.2374390034       -1.3664355403        2.9465908662
 H          0.0389448371       -2.0677194387        3.8540140140
 H         -1.8304817502       -2.5563833301        2.3174697168
 H         -2.5405540993       -3.1519258456        0.1299663195
 C         -1.5206144015       -2.9298355686       -1.7347952440
 C         -1.0483821415       -4.3428557694       -1.8940501368
 C         -2.4050279660       -3.9452804606       -2.3908499446
 H         -2.5652799153       -3.8757799447       -3.4563199899
 H         -3.2714600312       -4.2829294052       -1.8410276001
 H         -0.2761096800       -4.5510591911       -2.6185536070
 H         -0.9925091332       -4.9508914957       -1.0037747390
 H         -1.0837586301       -2.1725686647       -2.3730954891
