  62
        -98.94130741
 C          1.0003534567        0.9681084064        0.7706263832
 C          1.7360535047        0.8377920883       -0.4300623634
 C          2.3956739714       -0.4601664263       -0.6521229360
 C          2.2120391569       -1.4546314666        0.2316062417
 C          2.7227250473       -2.8728293499        0.1664992335
 C          4.1802324034       -3.0826168399       -0.2679627685
 C          5.1480075110       -1.9608999596        0.1364524795
 H          4.6679222930       -1.2931425233        0.8535917709
 H          6.0151942632       -2.4028645888        0.6304622147
 C          5.6526329054       -1.1481693664       -1.0583374832
 H          6.5779889696       -0.6420144756       -0.7732060276
 H          5.8932175866       -1.8353069774       -1.8724661859
 C          4.6929135517       -0.0773310755       -1.5762545976
 H          5.1179369882        0.3419905940       -2.4913540167
 H          4.6223534849        0.7386421605       -0.8519045402
 C          3.2626450062       -0.5575965347       -1.8734231658
 H          2.8205897603        0.1211684044       -2.6082887826
 H          3.2588605516       -1.5620634871       -2.2907178051
 H          4.2211855574       -3.2138292209       -1.3484838912
 H          4.5087302664       -4.0244635113        0.1749405534
 H          2.0644683151       -3.4358858670       -0.5029497102
 H          2.5807611900       -3.2739856751        1.1730906762
 O          1.4525628798       -1.3011740497        1.3536099899
 C          0.8304420419       -0.0995209720        1.6487883329
 O          0.1632121845       -0.1108954435        2.7032235741
 O          1.8380906419        1.7580133224       -1.2832856927
 C          0.2431818256        2.2516710298        1.0664246509
 C         -0.8027759183        2.4390809144       -0.0067094181
 C         -1.0064691190        3.6227260157       -0.7022279902
 C         -1.9547700822        3.6831431348       -1.7098437073
 C         -2.7012792755        2.5710513876       -2.0534184541
 C         -2.5146027236        1.3854540715       -1.3506439407
 C         -1.5930795218        1.3400602748       -0.3196003474
 H         -1.4530068774        0.4190827054        0.2275622720
 N         -3.2545876773        0.2321266716       -1.6499201173
 S         -2.5509026389       -1.2750896660       -1.4653121477
 O         -1.1415834032       -1.2651912365       -1.7839957743
 O         -3.3727651645       -2.1495181395       -2.2780758005
 C         -2.8066389015       -1.6850410673        0.2471262845
 C         -4.0187303319       -1.3815225457        0.8349279983
 C         -4.2222299373       -1.7281542664        2.1606791719
 C         -3.2192912222       -2.3711032009        2.8705003417
 C         -2.0111070574       -2.6752466064        2.2638510341
 C         -1.8023962622       -2.3319070758        0.9381468864
 H         -0.8690410828       -2.5335831193        0.4349963702
 H         -1.2242770574       -3.1625603358        2.8166133685
 H         -3.3759344423       -2.6340396589        3.9047367833
 H         -5.1594931111       -1.4921233626        2.6384984155
 H         -4.7721649719       -0.8766504805        0.2537383606
 H         -3.8296737845        0.2884953266       -2.4776796966
 H         -3.4180202693        2.6140083825       -2.8592051843
 H         -2.1005237995        4.6065181813       -2.2497232590
 H         -0.4143503562        4.4921190461       -0.4682840219
 H         -0.2738941315        2.0856528837        2.0229713307
 C          1.1874137194        3.4246345348        1.2143136390
 C          0.8013700299        4.5970440700        2.0640018077
 C          1.8622085942        3.6485451656        2.5331284458
 H          2.8893704803        3.9810602798        2.5367624574
 H          1.6218533595        2.9656638235        3.3351825539
 H          1.1027447790        5.5843945101        1.7482589071
 H         -0.1596111398        4.5636567046        2.5545004226
 H          1.7674095624        3.6080919541        0.3174562600
