  62
        -98.93853238
 C         -1.8028195407       -1.0669614117       -0.0390533362
 C         -2.3304604347        0.0635375936       -0.7036234784
 C         -3.7997493946        0.1924794981       -0.7118393453
 C         -4.5514536534       -0.7437201078       -0.1030210737
 C         -6.0543465633       -0.8965839109        0.0067214662
 C         -6.9843221777        0.2735459999       -0.3039362841
 C         -6.8837513987        1.4484970325        0.6679474645
 H         -7.5212314878        2.2536191045        0.2960062530
 H         -7.2779002937        1.1331205240        1.6373008595
 C         -5.4771511172        1.9955708406        0.8985346974
 H         -4.8590231053        1.2312030682        1.3737611561
 H         -5.5539382439        2.8293370442        1.6017068246
 C         -4.7599879260        2.5064271344       -0.3497934415
 H         -3.8471729274        3.0109281552       -0.0212331953
 H         -5.3850494018        3.2435338788       -0.8576700136
 C         -4.3477839591        1.4273066456       -1.3666377441
 H         -5.1683709927        1.1772800250       -2.0350427595
 H         -3.5376757138        1.8338028907       -1.9794002599
 H         -6.8365888029        0.6119731302       -1.3252228376
 H         -8.0040805024       -0.1166589189       -0.2445851556
 H         -6.3170799029       -1.7303498861       -0.6538358596
 H         -6.2433436351       -1.2420264154        1.0279614868
 O         -3.9924474651       -1.8222221756        0.5212631940
 C         -2.6230819164       -2.0086596948        0.5783140852
 O         -2.2668608607       -3.0290570260        1.2013229444
 O         -1.6138363327        0.9278473438       -1.2731014040
 C         -0.3013443554       -1.2869843546        0.0132905918
 C          0.3742281763       -0.0856235592        0.6266452315
 C         -0.1019338566        0.3940949106        1.8451728396
 C          0.4664438799        1.5023523480        2.4402708384
 C          1.5323759402        2.1498677733        1.8399312273
 C          2.0213870902        1.6747132409        0.6296964639
 C          1.4500736820        0.5562949917        0.0345862909
 H          1.8381453880        0.2215153524       -0.9125454864
 N          3.0931335963        2.3194971012       -0.0005009339
 S          4.2082796277        1.4726726756       -0.9008666560
 O          5.3756336242        2.3289268568       -0.9185671455
 O          3.6688956138        1.1246988851       -2.1911004680
 C          4.5624000858       -0.0093358462        0.0293157885
 C          4.8267511442        0.0942393549        1.3808523714
 C          5.1131281934       -1.0561393714        2.0975588976
 C          5.1359737988       -2.2845127247        1.4546790277
 C          4.8775992075       -2.3711622158        0.0958927941
 C          4.5871637237       -1.2235228962       -0.6245985699
 H          4.3743620283       -1.2460131270       -1.6809705010
 H          4.8981016022       -3.3259125024       -0.4050407480
 H          5.3575457345       -3.1789173809        2.0154039470
 H          5.3164265292       -0.9919541773        3.1543519158
 H          4.8096826810        1.0612918306        1.8559669632
 H          3.5094996338        3.0782493627        0.5174223237
 H          1.9725164699        3.0229600562        2.2970402646
 H          0.0791101163        1.8667140694        3.3798310958
 H         -0.9370263422       -0.1109999840        2.3119005064
 H         -0.1439443429       -2.1466632336        0.6811486464
 C          0.2128934485       -1.6428571454       -1.3655230957
 C          1.4196434254       -2.5162845838       -1.5209790573
 C          0.0593222935       -3.0529493934       -1.8481905548
 H         -0.1969418317       -3.2194287072       -2.8837982898
 H         -0.3913683520       -3.7608141168       -1.1676144675
 H          2.0963737935       -2.3105885824       -2.3365268802
 H          1.9023321414       -2.8666904830       -0.6212844233
 H          0.0603927414       -0.8481079270       -2.0874007624
