  62
        -98.94170277
 C          0.9659507631        1.6187200551        0.3992807923
 C          1.0961669300        0.5320010836       -0.4953341585
 C          2.0979694223       -0.4897421928       -0.1402677182
 C          2.7370359812       -0.4080800737        1.0413410140
 C          3.7290706057       -1.3438128742        1.7014425731
 C          4.4652578968       -2.4039526064        0.8859187275
 C          5.4420431672       -1.8493837785       -0.1503282515
 H          6.2812810564       -1.3877962388        0.3759625232
 H          5.8339860608       -2.6870000305       -0.7313312650
 C          4.8661034686       -0.8067540983       -1.1052395678
 H          5.6642363741       -0.5030205607       -1.7879557953
 H          4.5699478840        0.0810576951       -0.5426536114
 C          3.6842513140       -1.2768053329       -1.9511325266
 H          3.9570147384       -2.1885915205       -2.4855814882
 H          3.4841044689       -0.5000438512       -2.6935387768
 C          2.3735683748       -1.5317973120       -1.1845899054
 H          1.5458247034       -1.4691463555       -1.8964198311
 H          2.3587280002       -2.5272757134       -0.7473526178
 H          5.0419621420       -2.9985329507        1.5998641483
 H          3.7546335849       -3.0786577845        0.4177817184
 H          4.4628367409       -0.6991034853        2.1958854783
 H          3.1719347073       -1.8456253258        2.5013414254
 O          2.5029193471        0.6124079556        1.9190621823
 C          1.6515799196        1.6575172629        1.6104077853
 O          1.5892197518        2.5474911056        2.4852989825
 H         -1.1281409563        0.6632402138        1.3037653659
 C         -1.8282125971        1.2042127188        0.6847212808
 C         -1.4026398688        2.3075315272       -0.0406759703
 C         -2.3334614471        2.9881284029       -0.8185610218
 C         -3.6519712894        2.5716862644       -0.8614372056
 C         -4.0678717152        1.4622200287       -0.1477400079
 C         -3.1429130535        0.7710161271        0.6259810378
 N         -3.5186894195       -0.3656173551        1.3632970809
 S         -2.5316974008       -1.7082104622        1.3851383360
 O         -3.3889988919       -2.7656155881        1.8843438824
 O         -1.3415731103       -1.4600278348        2.1618643453
 C         -2.0993237551       -2.0904927689       -0.3045952103
 C         -0.9249783112       -2.7799043239       -0.5233212369
 C         -0.6087146040       -3.1820042626       -1.8107765064
 C         -1.4607516951       -2.8733845087       -2.8585402901
 C         -2.6332417250       -2.1739868601       -2.6249898517
 C         -2.9652554042       -1.7887860547       -1.3361702699
 H         -3.8793770956       -1.2540705061       -1.1391319640
 H         -3.2934351779       -1.9288145551       -3.4413274560
 H         -1.2067049806       -3.1774700602       -3.8617148788
 H          0.3007714378       -3.7318969460       -1.9923672644
 H         -0.2792716852       -2.9787143720        0.3177255889
 H         -4.4896901065       -0.6302133098        1.2792025746
 H         -5.0964673178        1.1361679697       -0.1823922312
 H         -4.3645691338        3.1138841774       -1.4637840627
 H         -2.0238463747        3.8498454177       -1.3870138770
 C          0.0307535200        2.7670246190        0.0793695572
 H          0.0888103145        3.4505312373        0.9407781793
 C          0.5144978502        3.5002260962       -1.1579315142
 C          0.3861826969        4.9893085593       -1.2649920271
 C          1.7321079142        4.3669213552       -1.0510369978
 H          2.4406476630        4.3667873094       -1.8655467006
 H          2.1889839147        4.4568042367       -0.0756057409
 H         -0.0604450153        5.5165181114       -0.4352393661
 H          0.1722379986        5.4200586566       -2.2316370100
 H          0.3996661740        2.9090463644       -2.0589589433
 O          0.4125477057        0.4146466784       -1.5456687298
