  62
        -98.94169822
 C         -2.7458679603       -0.4667514210       -0.3896518505
 C         -1.9291122107        0.3953895800       -1.1618437797
 C         -2.0857739113        1.8341174397       -0.9023735786
 C         -3.0044483415        2.2550947486       -0.0159145983
 C         -3.2334238722        3.6854385982        0.3752800328
 C         -2.3941644124        4.0687306176        1.6019269131
 C         -0.9197211222        3.6769806283        1.4956554429
 H         -0.4223312324        4.0369608378        2.3993273832
 H         -0.8288805817        2.5874289183        1.5010243420
 C         -0.1973364224        4.2332377396        0.2610078133
 H         -0.7596285928        5.0716767097       -0.1528589460
 H          0.7772387274        4.6141973798        0.5731757137
 C          0.0614632781        3.1986414406       -0.8360636975
 H          0.5178123685        2.3108070004       -0.3879096982
 H          0.7814559179        3.6251858614       -1.5403807971
 C         -1.1707835117        2.7675769007       -1.6432585879
 H         -1.7126497921        3.6507549507       -1.9876708472
 H         -0.8223397314        2.2138785415       -2.5198824483
 H         -2.4741033729        5.1472676174        1.7506622440
 H         -2.8153841922        3.5721707967        2.4792171927
 H         -2.9841569724        4.3308901189       -0.4645646667
 H         -4.2903279422        3.8098431975        0.6173809429
 O         -3.8145343612        1.4032617877        0.6629170510
 C         -3.6762869806        0.0338467678        0.5270081199
 O         -4.4422659703       -0.6296952431        1.2546739694
 H         -0.0246868298       -1.6606918192       -1.1206073113
 C         -0.1251067396       -2.0787454301       -0.1305176716
 C         -1.3905899695       -2.3504752410        0.3689709481
 C         -1.4973625993       -2.8564407021        1.6596136277
 C         -0.3674274692       -3.0647390222        2.4320682276
 C          0.8896342806       -2.7533624913        1.9434368579
 C          1.0026494504       -2.2504961402        0.6549987683
 N          2.2741874403       -1.8541141892        0.1643765186
 S          2.8040199196       -0.4515172596        0.9610781097
 O          3.3191381298       -0.8444134304        2.2492615494
 O          1.7527210192        0.5417988099        0.9789877705
 C          4.1380980894        0.0714302518       -0.0983354298
 C          3.8607740091        0.9368901725       -1.1392467291
 C          4.8888126590        1.3127340936       -1.9894331288
 C          6.1675695392        0.8153026940       -1.7875520692
 C          6.4293350995       -0.0538776767       -0.7389341499
 C          5.4063308797       -0.4328330578        0.1156996198
 H          5.5615120099       -1.1000602384        0.9471802993
 H          7.4252203297       -0.4368537664       -0.5853286801
 H          6.9648665491        1.1089781749       -2.4518814989
 H          4.6870197887        1.9891672242       -2.8044186583
 H          2.8528341389        1.3038491121       -1.2568373889
 H          2.2063351102       -1.6349053785       -0.8232694612
 H          1.7739996007       -2.8617159313        2.5503457378
 H         -0.4684729791       -3.4539278930        3.4342032173
 H         -2.4787211192       -3.0548416928        2.0669680775
 C         -2.6197786596       -1.9851315609       -0.4284225916
 H         -3.4982741295       -2.3734877517        0.1030853780
 C         -2.6090281493       -2.5606534798       -1.8292978521
 C         -2.8831998487       -4.0223836498       -2.0111719933
 C         -3.8985451891       -3.0093558399       -2.4452514825
 H         -4.0474982992       -2.8457956091       -3.5019541124
 H         -4.7979261892       -2.9023504908       -1.8562793824
 H         -3.0942022285       -4.6037414006       -1.1262867937
 H         -2.3344631884       -4.5587951090       -2.7698408437
 H         -1.8852723995       -2.0968131890       -2.4854508017
 O         -1.1044939405        0.0112199910       -2.0345275400
