  62
        -98.94135800
 C         -2.2036596260       -0.7104293992       -0.3490007289
 C         -3.4199287101       -0.9126264936        0.3512226362
 C         -4.1326591345        0.2987297589        0.7752554325
 C         -3.5862348770        1.5026762128        0.5256833543
 C         -4.2207437868        2.8194783474        0.8656170856
 C         -5.0775244867        3.3405683476       -0.2968310722
 C         -6.0468767324        2.3028474007       -0.8628659117
 H         -5.4742851062        1.4971859520       -1.3279129436
 H         -6.6183054910        2.7904361606       -1.6555851224
 C         -7.0125819480        1.7060344601        0.1703852902
 H         -8.0155988167        1.6820226517       -0.2607062202
 H         -7.0543270063        2.3467585424        1.0519050187
 C         -6.6782339365        0.2761135583        0.5992995962
 H         -6.5436686321       -0.3500231185       -0.2862376507
 H         -7.5324614387       -0.1209092327        1.1540785081
 C         -5.4410779130        0.1192116323        1.4925811464
 H         -5.4342637582       -0.9056423077        1.8750955258
 H         -5.5110498648        0.8013249426        2.3424156784
 H         -4.4110723310        3.6614448935       -1.1007335053
 H         -5.6356566824        4.2119981762        0.0501704286
 H         -3.4270182389        3.5392390596        1.0732076691
 H         -4.8325088885        2.7018025337        1.7579782466
 O         -2.4008025156        1.6576671667       -0.1154491108
 C         -1.6822183739        0.5634860682       -0.5760560752
 O         -0.6257422175        0.8665827609       -1.1634437356
 O         -3.8872302239       -2.0543528704        0.6071434301
 C         -1.4281573457       -1.9389662700       -0.7982127932
 C         -0.1806375236       -2.0256975237        0.0453814046
 C         -0.2616254907       -2.5727684579        1.3230989255
 C          0.8408521073       -2.5852577955        2.1566417379
 C          2.0444674727       -2.0441272830        1.7387235304
 C          2.1316098530       -1.4885171670        0.4699413731
 C          1.0290097282       -1.4958151353       -0.3745102804
 H          1.1060462797       -1.0457910100       -1.3514461613
 N          3.3489359233       -0.9243013275        0.0353643369
 S          4.1015393066        0.1340750881        1.1183178188
 O          4.8482680923       -0.6502975634        2.0711753005
 O          3.1365650839        1.0525979681        1.6815192719
 C          5.2241882388        0.9916535437        0.0326133765
 C          6.5030641013        0.4989380103       -0.1425611154
 C          7.3604171159        1.1566975653       -1.0103714377
 C          6.9263081620        2.2877315321       -1.6853585773
 C          5.6389405755        2.7696162963       -1.4999639323
 C          4.7759208485        2.1161866805       -0.6344370121
 H          3.7689895078        2.4602842408       -0.4552761004
 H          5.3034687464        3.6495637786       -2.0250788518
 H          7.5949116591        2.7994765179       -2.3594190785
 H          8.3621536010        0.7863974117       -1.1568934635
 H          6.7963637409       -0.3785978997        0.4094093890
 H          3.2365626328       -0.4700409163       -0.8619655344
 H          2.9069922820       -2.0249697967        2.3853237808
 H          0.7632322420       -3.0124398503        3.1453746736
 H         -1.2082866435       -2.9709039515        1.6614616769
 H         -2.0696565708       -2.7944421891       -0.5480103447
 C         -1.1677362296       -1.9436134042       -2.2895483376
 C         -0.7136689958       -3.2108558074       -2.9484059912
 C         -2.0985642909       -2.6937871798       -3.1926158138
 H         -2.3293638677       -2.2710476387       -4.1589591730
 H         -2.9271621824       -3.2142496710       -2.7352173415
 H          0.0078461741       -3.1472923926       -3.7483563868
 H         -0.6005880074       -4.0823932786       -2.3216353846
 H         -0.7702710143       -1.0069012491       -2.6604318689
