  62
        -98.93895780
 C         -2.0427079766        0.4860850803        0.2354689989
 C         -3.0541424990        0.8564527054       -0.6837435999
 C         -4.2504503299       -0.0008277413       -0.7400923865
 C         -4.3218282653       -1.0846840110        0.0549971994
 C         -5.3792076525       -2.1616881720        0.1816795663
 C         -6.7625090818       -1.9759428029       -0.4362592261
 C         -7.6138201280       -0.8885730035        0.2186669166
 H         -8.5298896818       -0.7739035905       -0.3648464257
 H         -7.8970488102       -1.2254394624        1.2191318975
 C         -6.9431240330        0.4749742429        0.3648467588
 H         -7.6543605624        1.1463452173        0.8536536413
 H         -6.0773519457        0.3888097984        1.0245747909
 C         -6.5073287736        1.1327270543       -0.9428540163
 H         -7.3571714348        1.1919373755       -1.6255577839
 H         -6.1945629016        2.1538732083       -0.7089402986
 C         -5.3393540105        0.4469010312       -1.6723787788
 H         -4.8842125948        1.1801168167       -2.3445254660
 H         -5.6870188988       -0.3826698956       -2.2834225885
 H         -6.6772866504       -1.8026116600       -1.5049407999
 H         -7.2887303000       -2.9263315912       -0.3115517724
 H         -4.9298250599       -3.0672918460       -0.2410052612
 H         -5.4888091368       -2.3465842801        1.2551173089
 O         -3.3121301323       -1.4126753510        0.9126809221
 C         -2.1610797080       -0.6503768610        1.0329434633
 O         -1.3531724444       -1.0886117488        1.8741465320
 O         -2.9611282199        1.8640577513       -1.4342375137
 C         -0.7919619423        1.3470657263        0.3066815072
 C          0.3526538735        0.5721062557       -0.2975772296
 C          0.5289189682        0.5851792853       -1.6785352593
 C          1.5344290812       -0.1564667188       -2.2699871131
 C          2.3834134055       -0.9300289271       -1.4979345745
 C          2.2149641521       -0.9500095212       -0.1196309024
 C          1.2149469733       -0.1908087086        0.4749302089
 H          1.0836167782       -0.2312420210        1.5444577233
 N          3.0657234443       -1.7385247431        0.6701582085
 S          4.7024689844       -1.7382320435        0.3392893199
 O          4.9768032224       -2.6143522338       -0.7730729365
 O          5.3428200177       -2.0861924760        1.5883086097
 C          5.0873655034       -0.0551249111       -0.1117369596
 C          5.5597317072        0.2301309961       -1.3764039715
 C          5.8228013537        1.5486571212       -1.7123569505
 C          5.6070392084        2.5539051278       -0.7829425637
 C          5.1357169876        2.2508259763        0.4854890111
 C          4.8713267919        0.9346569629        0.8267036953
 H          4.5094920505        0.6645635111        1.8057473497
 H          4.9705374682        3.0344755204        1.2073118639
 H          5.8081324647        3.5802216157       -1.0467479423
 H          6.1914044422        1.7868053475       -2.6971031199
 H          5.7130232287       -0.5819314363       -2.0683277421
 H          2.8744080514       -1.6911487100        1.6593586982
 H          3.1595543056       -1.5314412342       -1.9426273712
 H          1.6572865150       -0.1375879143       -3.3421439907
 H         -0.1449974652        1.1747935529       -2.2839019366
 H         -0.9983419463        2.2078380157       -0.3431856765
 C         -0.5178893864        1.8504842544        1.7083058724
 C          0.4612021370        2.9681244244        1.9044715004
 C         -1.0038332494        3.2111767751        2.1044034597
 H         -1.3725904221        3.3531172203        3.1093518061
 H         -1.5330588411        3.7890532208        1.3610152706
 H          1.1006137172        2.9472987250        2.7736057273
 H          0.9268392060        3.3798798716        1.0220992718
 H         -0.5614282166        1.0742309969        2.4622768073
