  62
        -98.93957097
 C         -2.5384933156       -1.2441849328        0.3222891185
 C         -2.5227853335       -0.3982034677       -0.8107093791
 C         -3.3025527721        0.8494528982       -0.7096019472
 C         -3.9763180857        1.1207817887        0.4240006646
 C         -4.8833197973        2.2769720322        0.7912958821
 C         -4.8878882472        3.5591972856       -0.0369751763
 C         -3.5920545595        4.3676659142        0.0256575958
 H         -3.6721461137        5.1978465405       -0.6792564510
 H         -3.4934829751        4.7911006631        1.0284097738
 C         -2.3124121928        3.5886699273       -0.2708583672
 H         -1.4683156628        4.2792051367       -0.1856273422
 H         -2.1672896813        2.8167699493        0.4885119340
 C         -2.2427382178        2.9425857887       -1.6535529546
 H         -2.4143809873        3.6998414163       -2.4211172505
 H         -1.2259945287        2.5592444788       -1.7849383952
 C         -3.2155515038        1.7736113131       -1.8892885162
 H         -4.2016153596        2.1309264008       -2.1759795259
 H         -2.8266683622        1.1758902202       -2.7188771202
 H         -5.1500568296        3.3409280737       -1.0678597163
 H         -5.6866108885        4.1869379956        0.3671026696
 H         -5.8991960030        1.8667432404        0.7979987901
 H         -4.6442380812        2.5235527936        1.8306458571
 O         -3.9632212647        0.2675450440        1.4908076457
 C         -3.2386878648       -0.9120156379        1.4788513981
 O         -3.2923023870       -1.5604467527        2.5439051725
 O         -1.8913136267       -0.6699585347       -1.8648193806
 C         -1.7426604643       -2.5363378225        0.3124453556
 C         -0.2911823938       -2.2459752617        0.0132941149
 C          0.4682292419       -2.9888626213       -0.8807935882
 C          1.7911280525       -2.6584424083       -1.1196756044
 C          2.3865212464       -1.5916390337       -0.4725356358
 C          1.6383004827       -0.8456283190        0.4288879344
 C          0.3157800343       -1.1826561854        0.6701149949
 H         -0.2665482161       -0.5966654418        1.3720992343
 N          2.2359278348        0.2325850299        1.1066428678
 S          3.0559919122        1.3823934265        0.1954570273
 O          3.0246736213        2.5863665540        0.9980029309
 O          2.5225741052        1.4878909247       -1.1424450623
 C          4.7247777750        0.7629519823        0.1450066418
 C          5.3576774886        0.4986314446        1.3438693109
 C          6.6565289540        0.0162696935        1.3225592836
 C          7.2981453493       -0.1890350954        0.1100622633
 C          6.6508324957        0.0860848617       -1.0847500646
 C          5.3507647501        0.5674191434       -1.0704293409
 H          4.8048392631        0.7890556745       -1.9737636120
 H          7.1512535925       -0.0731168796       -2.0263868046
 H          8.3087216124       -0.5656307872        0.0962053522
 H          7.1631738775       -0.1984907501        2.2496768643
 H          4.8249130021        0.6751689117        2.2632902636
 H          1.6167348141        0.6864858355        1.7629146370
 H          3.4134378134       -1.3263412532       -0.6633341606
 H          2.3668103012       -3.2399209235       -1.8234891558
 H          0.0211605964       -3.8201362277       -1.4005172537
 H         -1.8076483454       -2.9424165590        1.3328701569
 C         -2.3706193578       -3.5261898611       -0.6468800359
 C         -2.2604188080       -4.9991235025       -0.3947763971
 C         -3.5717000204       -4.3012239663       -0.1983040147
 H         -4.3652755193       -4.4793618427       -0.9083135226
 H         -3.9193561590       -4.1330343904        0.8108862881
 H         -2.1568720567       -5.6608583102       -1.2414444534
 H         -1.7204746075       -5.3171322311        0.4841841824
 H         -2.3547084044       -3.1759785296       -1.6726631930
