  62
        -98.93970582
 C         -1.7943999397       -0.7678399289        0.8890553205
 C         -2.9759102197       -1.0918837691        0.1777550205
 C         -4.0135396997       -0.0478556791        0.1446638600
 C         -3.7875952797        1.1378644912        0.7366406496
 C         -4.7314621196        2.3042864712        0.7173131790
 C         -4.4554804295        3.2252012007       -0.4795660113
 C         -4.3416467294        2.4882716302       -1.8141624810
 H         -4.1784038393        3.2411482299       -2.5884808913
 H         -3.4546614294        1.8504765002       -1.7960672407
 C         -5.5679037094        1.6393675801       -2.1776039708
 H         -5.8159671093        1.8138196897       -3.2267704409
 H         -6.4271326194        1.9562876404       -1.5852353910
 C         -5.3670371995        0.1318663602       -2.0125051502
 H         -4.4548810494       -0.1747361501       -2.5307942300
 H         -6.2044596995       -0.3775841500       -2.4968910200
 C         -5.2955616796       -0.3774286393       -0.5674366900
 H         -6.1546210696       -0.0072929290       -0.0041840102
 H         -5.3499356396       -1.4695563093       -0.5989538796
 H         -5.2564892994        3.9644370007       -0.5379642016
 H         -3.5169021695        3.7549353108       -0.3009145314
 H         -5.7547764896        1.9361000212        0.6766726991
 H         -4.5960044397        2.8719253315        1.6395133988
 O         -2.6320400797        1.4253622914        1.3866159396
 C         -1.6179225897        0.4877512114        1.4800614700
 O         -0.6176906398        0.8833370916        2.1097112199
 O         -3.1800948597       -2.1849926993       -0.4139813891
 C         -0.6249729598       -1.7245463988        1.0630587009
 C          0.3207529203       -1.6659819993       -0.1137158090
 C         -0.1435783996       -1.7798718998       -1.4195241790
 C          0.7312766205       -1.6997078803       -2.4879649990
 C          2.0867730005       -1.5175133902       -2.2770981789
 C          2.5629225804       -1.4181374497       -0.9774813489
 C          1.6818233003       -1.4911442893        0.0946853410
 H          2.0584904002       -1.3925857989        1.1040124110
 N          3.9498963004       -1.2382233597       -0.7762916889
 S          4.5849406505        0.2659406301       -1.1561935294
 O          4.0298279706        0.6955848196       -2.4129930796
 O          6.0210524605        0.1233764101       -1.0966506592
 C          4.0394403304        1.3232123906        0.1735170201
 C          2.7015045204        1.6588303107        0.2464564699
 C          2.2524932203        2.3906642112        1.3344720296
 C          3.1491471403        2.7842040115        2.3166130295
 C          4.4921625703        2.4514991614        2.2222956397
 C          4.9425797803        1.7027375910        1.1470416101
 H          5.9738074803        1.4074568009        1.0388818803
 H          5.1846789602        2.7630789917        2.9877733297
 H          2.7921394402        3.3499545618        3.1627500293
 H          1.2018724903        2.6159992612        1.4269978194
 H          2.0289868305        1.3419590404       -0.5352521800
 H          4.2606774803       -1.5032100394        0.1483523212
 H          2.7796729106       -1.4368468206       -3.0984052089
 H          0.3541344306       -1.7826396306       -3.4961980490
 H         -1.1982000796       -1.9324344098       -1.5901304590
 H         -0.0779867199       -1.3654696885        1.9456750608
 C         -1.0485199099       -3.1590106787        1.3168901614
 C         -0.1184354200       -4.0746165685        2.0515215319
 C         -1.3746832500       -3.5932126982        2.7125009416
 H         -2.1856763600       -4.2908044681        2.8573304918
 H         -1.2875444300       -2.8571296579        3.4987426913
 H         -0.0623936500       -5.1067602286        1.7416576623
 H          0.8207161800       -3.6684127084        2.3955977618
 H         -1.6402245898       -3.5786167990        0.5144324716
