  62
        -98.94319885
 C         -1.8607381539       -0.7876055273        0.7208557599
 C         -2.8210074193       -1.1891669872       -0.2404290622
 C         -4.1676400920       -0.6254452868       -0.0706899209
 C         -4.4312222379        0.1993371301        0.9576335392
 C         -5.7584361137        0.8366445508        1.2677075770
 C         -6.0297862402        2.1270478548        0.4821398357
 C         -6.3413694040        1.9321883547       -1.0023500013
 H         -7.1386438013        1.1962478436       -1.1111432886
 H         -6.7234788841        2.8841405519       -1.3764243655
 C         -5.1337274218        1.5162506887       -1.8540035122
 H         -4.2116671978        1.7250588841       -1.3060807008
 H         -5.1062402046        2.1184442888       -2.7649780771
 C         -5.1346389868        0.0482735693       -2.2805273812
 H         -4.2176961156       -0.1446686804       -2.8427791195
 H         -5.9828178170       -0.1401784731       -2.9423886635
 C         -5.1940702760       -0.9473588128       -1.1148952320
 H         -6.1920503488       -0.9566374978       -0.6776432875
 H         -4.9714717611       -1.9438936732       -1.5036117802
 H         -5.1673355137        2.7891901818        0.5899172464
 H         -6.8859863319        2.6188145973        0.9498035396
 H         -5.7456061272        1.0782896123        2.3327600414
 H         -6.5606597245        0.1215050792        1.0834802959
 O         -3.4883928061        0.5421016708        1.8759113087
 C         -2.1890672576        0.0766967849        1.7697195130
 O         -1.4281901975        0.4877327703        2.6702663810
 O         -2.5949098326       -1.9782060590       -1.1938211383
 C         -0.4110496283       -1.2502255513        0.6818553140
 C          0.3519505110       -0.4643386480       -0.3580320491
 C          0.1699193313       -0.6787156471       -1.7209647002
 C          0.8580325033        0.0828607828       -2.6470557589
 C          1.7527714038        1.0559633097       -2.2374436743
 C          1.9409447116        1.2798289913       -0.8793180168
 C          1.2390377489        0.5228763188        0.0491174908
 H          1.3779637784        0.7252557705        1.1010100681
 N          2.8423892929        2.2635624968       -0.4315067967
 S          3.9951797445        1.8291613636        0.7020208104
 O          3.3837289299        1.6373339915        1.9915716299
 O          5.0007812360        2.8652752228        0.6167398868
 C          4.6465438866        0.2889491298        0.0832134087
 C          5.5847072117        0.3332066799       -0.9298072051
 C          6.0379815671       -0.8562242917       -1.4761516571
 C          5.5390872651       -2.0633202178       -1.0102220052
 C          4.5988174047       -2.0911555298        0.0078841032
 C          4.1457623375       -0.9043498013        0.5620073525
 H          3.4195736227       -0.8816353546        1.3583591471
 H          4.2119052864       -3.0301923253        0.3701092658
 H          5.8864167653       -2.9892590771       -1.4404518504
 H          6.7733805143       -0.8390248571       -2.2642288577
 H          5.9519583309        1.2924910410       -1.2569101546
 H          3.2719514204        2.7923683305       -1.1775488936
 H          2.2927748671        1.6472362833       -2.9615254782
 H          0.7009161727       -0.0872012637       -3.7013072133
 H         -0.5391609954       -1.4232037094       -2.0463286999
 H          0.0051521751       -0.9908871093        1.6650294042
 C         -0.2756528158       -2.7468306967        0.4847057344
 C          0.9665360798       -3.4343321244        0.9612978223
 C         -0.3305219387       -3.6449015749        1.6821667182
 H         -0.8283573258       -4.5983111514        1.5885280900
 H         -0.4587778726       -3.1803022816        2.6496544738
 H          1.3635827292       -4.2461774628        0.3718907278
 H          1.7165627512       -2.8282221632        1.4466812952
 H         -0.7386292142       -3.1093289480       -0.4226459443
