  62
        -98.92997386
 C         -1.9929625230       -1.5867432755       -0.0270689753
 C         -1.6733124988       -0.2879251245       -0.4788285135
 C         -2.8014246079        0.6535283749       -0.6474186144
 C         -4.0541762435        0.2160075888       -0.4248355315
 C         -5.3446563710        0.9867030168       -0.5153208151
 C         -5.5667166069        1.9166099411        0.6880846261
 C         -4.3402629229        2.7200843621        1.1119472245
 H         -4.5962856398        3.2556604947        2.0299427931
 H         -3.5281496427        2.0321939599        1.3540427189
 C         -3.8518928779        3.7467976010        0.0927411793
 H         -4.6611783613        4.4470077795       -0.1257052517
 H         -3.0436692466        4.3113902021        0.5643705854
 C         -3.3275531784        3.1815644400       -1.2295792455
 H         -4.1442102458        2.8961965202       -1.8871927276
 H         -2.7895749602        3.9874255356       -1.7374111685
 C         -2.3437062431        2.0252464232       -1.0816453274
 H         -1.8325320852        1.8745721238       -2.0400482236
 H         -1.5551191988        2.3129955751       -0.3767604245
 H         -5.8727305896        1.3016979638        1.5380300228
 H         -6.3871713063        2.5961979899        0.4513805515
 H         -5.3829040685        1.5431478543       -1.4470986952
 H         -6.1487496022        0.2477197955       -0.5365558089
 O         -4.3169309827       -1.0632042980       -0.0277542950
 C         -3.3123673074       -1.9814912338        0.1946051993
 O         -3.7075086116       -3.1007344288        0.5814831780
 H          1.8024948720       -1.9915310855       -0.4715357540
 C          1.5032016010       -1.7683918903        0.5343597935
 C          0.2192788991       -2.0157297438        0.9917386294
 C         -0.0854196513       -1.6511023326        2.3054746971
 C          0.8531071568       -1.0584640930        3.1251673625
 C          2.1331507159       -0.8139845011        2.6586614439
 C          2.4534424842       -1.1728022953        1.3566933826
 N          3.7589449154       -0.9837258727        0.8673150452
 S          4.0731432936       -0.1824945996       -0.5674042759
 O          3.3409207177       -0.7903866313       -1.6466418980
 O          5.5158969251       -0.2071824895       -0.6812987661
 C          3.5450931124        1.5002988683       -0.2962159907
 C          4.5077804992        2.4480013445       -0.0043159714
 C          4.1148824840        3.7528658191        0.2428565915
 C          2.7692251308        4.0853333929        0.1997623285
 C          1.8174025399        3.1202880306       -0.0893053570
 C          2.2007930663        1.8107654386       -0.3391023796
 H          1.4716275947        1.0484758328       -0.5645912893
 H          0.7697177100        3.3741908916       -0.1250013275
 H          2.4599427494        5.1009930064        0.3908099945
 H          4.8554168034        4.5037781968        0.4669684873
 H          5.5420667351        2.1440563832        0.0104890393
 H          4.4135478185       -0.6684878434        1.5694041138
 H          2.8742407914       -0.3546685550        3.2952888844
 H          0.5877062173       -0.7832732149        4.1348564806
 H         -1.0859121648       -1.8364283126        2.6741569024
 C         -0.9123956325       -2.6360362019        0.2102352265
 H         -1.3822803296       -3.3741509846        0.8824048478
 C         -0.6755198089       -3.3906217051       -1.0904631583
 C          0.1586190213       -2.9353687199       -2.2470554453
 C          0.5662261989       -4.1451910026       -1.4567824565
 H          0.4477644312       -5.1147524752       -1.9182136148
 H          1.4253991750       -4.0759769091       -0.8093055976
 H         -0.2412326561       -3.0889338628       -3.2399606311
 H          0.7280428759       -2.0236102457       -2.1611910927
 H         -1.6090613027       -3.8770174018       -1.3698014721
 O         -0.5017666181        0.0967864097       -0.7238618359
