  62
        -98.94176260
 C         -0.5710338992       -1.4832908807        0.0326904096
 C         -1.3264714598       -0.7588096216        0.9807641999
 C         -2.4036387102        0.0989544580        0.4533271801
 C         -2.5787286601        0.1896830185       -0.8782675899
 C         -3.5813145205        0.9634374782       -1.7095139797
 C         -4.7403210510        1.6994540372       -1.0437468495
 C         -5.8259090605        0.7842574063       -0.4740851800
 H         -6.3825960602        0.3505385564       -1.3086183703
 H         -6.5217412309        1.3924032057        0.1076380402
 C         -5.3313014699       -0.3719731837        0.3918834996
 H         -4.6678264395       -1.0121461531       -0.1927489106
 H         -6.1987359596       -0.9766614344        0.6704430492
 C         -4.6182506503        0.0342318061        1.6792802798
 H         -4.4252641498       -0.8760013640        2.2540001994
 H         -5.2722065208        0.6728670755        2.2766903100
 C         -3.2759788107        0.7566934670        1.4840469003
 H         -2.7237792708        0.7050384270        2.4271273903
 H         -3.4307963213        1.8059991270        1.2507408107
 H         -5.2061474413        2.3170256373       -1.8162735393
 H         -4.3684804315        2.3762389371       -0.2805466992
 H         -2.9920299808        1.6813001688       -2.2882925693
 H         -3.9843869400        0.2480199883       -2.4338486700
 O         -1.7626454096       -0.4640841507       -1.7574090101
 C         -0.7669816392       -1.3279760403       -1.3379676503
 O         -0.1419537287       -1.8804980195       -2.2623319405
 H          1.5392664199       -0.0093714496        0.4130337105
 C          2.2113255003       -0.7278782890       -0.0343417097
 C          1.8409474911       -2.0663011193       -0.0727954603
 C          2.7205225618       -2.9833404385       -0.6328977306
 C          3.9307546516       -2.5609304675       -1.1552123903
 C          4.2916397908       -1.2270974073       -1.1221457597
 C          3.4211425301       -0.3017727381       -0.5558661094
 N          3.7360010393        1.0631405321       -0.5389600988
 S          3.1547597286        2.0700933712        0.6538005416
 O          3.9636757679        3.2656934318        0.5358899822
 O          3.1700549888        1.4340902607        1.9509563413
 C          1.4878433484        2.4684740604        0.1728799616
 C          0.5724027781        2.7559514795        1.1654678616
 C         -0.7042646721        3.1555891989        0.8068665616
 C         -1.0444549520        3.2543480992       -0.5327015084
 C         -0.1180660917        2.9491840702       -1.5176199384
 C          1.1640390985        2.5591094008       -1.1658992184
 H          1.9064234387        2.3168596716       -1.9084055385
 H         -0.3868079016        3.0169101105       -2.5598698284
 H         -2.0364226421        3.5736474687       -0.8102608484
 H         -1.4238790123        3.3882174781        1.5750243916
 H          0.8730555281        2.6523515192        2.1960962716
 H          4.6656368792        1.3076373928       -0.8450393886
 H          5.2335750106       -0.8991182666       -1.5343316594
 H          4.6037048720       -3.2821483670       -1.5936427505
 H          2.4573274924       -4.0275968386       -0.6680669711
 C          0.5021568113       -2.4434810903        0.5099338894
 H          0.5561501711       -2.3082363907        1.6010240194
 C          0.0929428122       -3.8717488104        0.2135834587
 C          0.5540548528       -4.9918316405        1.0962198183
 C         -0.8777783075       -4.5516143114        1.1302980183
 H         -1.6285084171       -5.1975536117        0.7002861679
 H         -1.2223978480       -3.9927111420        1.9882422785
 H          1.1813325525       -4.7388995905        1.9377418085
 H          0.7848811434       -5.9445345602        0.6438563979
 H         -0.0057149876       -4.0622170400       -0.8495038214
 O         -1.1179892399       -0.8294440220        2.2230010999
