  62
        -98.94198080
 C         -1.2224259171       -0.8947907695        0.3790908519
 C         -2.0361800832       -0.6834747780       -0.7571419523
 C         -3.0021823481        0.4264772316       -0.6693849512
 C         -3.0196272355        1.1953325085        0.4330599043
 C         -3.9514771592        2.3353582960        0.7380480091
 C         -5.1669234166        1.8431377853        1.5422402627
 C         -6.3337404360        1.3315577008        0.6981563558
 H         -7.0630876986        0.8947144862        1.3840900096
 H         -6.8151757740        2.1774695366        0.2030861850
 C         -5.9689774144        0.2883344582       -0.3613344698
 H         -5.2695246243       -0.4357323811        0.0601829246
 H         -6.8791735810       -0.2547350450       -0.6227718843
 C         -5.3761529738        0.9047897232       -1.6372305761
 H         -5.5455641702        1.9814254763       -1.6240713720
 H         -5.9105964709        0.5182490973       -2.5074430168
 C         -3.8844053356        0.6213014199       -1.8722240522
 H         -3.4597835745        1.4218629634       -2.4878048502
 H         -3.7745638777       -0.3036778730       -2.4472844308
 H         -5.5321853878        2.6644231973        2.1621596033
 H         -4.8241783599        1.0529831932        2.2152290643
 H         -3.3874900670        3.0416578685        1.3513940857
 H         -4.2585861817        2.8361633585       -0.1754092411
 O         -2.1817318856        0.9880308387        1.4859066332
 C         -1.2617988962       -0.0431393570        1.4819562533
 O         -0.5428583709       -0.0992436344        2.5016239674
 O         -1.9683700892       -1.3898232123       -1.7977287884
 C         -0.1952136773       -2.0110309787        0.3842332114
 C          0.8468987434       -1.7719365685       -0.6830186201
 C          1.4267140104       -2.7902133169       -1.4294644852
 C          2.4028836598       -2.4991838269       -2.3670498226
 C          2.8397677559       -1.2014386025       -2.5631783996
 C          2.2687311628       -0.1765967121       -1.8173196463
 C          1.2785610758       -0.4702114357       -0.8946311631
 H          0.8223255186        0.3379964511       -0.3445080532
 N          2.6769527611        1.1566510483       -1.9736506106
 S          2.7322841680        2.1637365619       -0.6394472532
 O          1.4022070534        2.5584484097       -0.2468261253
 O          3.6123611763        3.2388134050       -1.0468129021
 C          3.5242791310        1.1897609695        0.6284410232
 C          4.8725397196        0.9296105680        0.4674548285
 C          5.5209891157        0.1327782768        1.3954983816
 C          4.8117849574       -0.3959116165        2.4639149782
 C          3.4622394140       -0.1209945854        2.6149083215
 C          2.8075233366        0.6798589067        1.6911174917
 H          1.7561421349        0.9002265067        1.7944774678
 H          2.9011904995       -0.5254381542        3.4425126190
 H          5.3125881943       -1.0227593045        3.1847027647
 H          6.5724582889       -0.0764700754        1.2829365417
 H          5.3900100781        1.3689152175       -0.3699325643
 H          3.4692884444        1.2935498472       -2.5835837487
 H          3.6053098452       -0.9792356773       -3.2903888708
 H          2.8377587853       -3.2977877061       -2.9484336070
 H          1.1091211359       -3.8094710617       -1.2828176471
 H          0.3130481290       -1.9473470014        1.3587475749
 C         -0.8708188690       -3.3624481958        0.2753813397
 C         -0.2731339799       -4.5632556393        0.9433654355
 C         -1.5215151187       -3.9439125416        1.4935451914
 H         -2.4569810119       -4.4702275866        1.3773791215
 H         -1.4520113562       -3.3763825152        2.4105869302
 H         -0.3538561530       -5.5205495088        0.4508273901
 H          0.6440851490       -4.4247391535        1.4955159898
 H         -1.3746082336       -3.4990458372       -0.6742416710
