  62
        -98.93897516
 C         -1.2207860101       -1.3406022397       -0.0730884804
 C         -1.3964847997        0.0158063206       -0.4367199395
 C         -2.5916872294        0.6916441806        0.1099212510
 C         -3.4056483796        0.0253252103        0.9447374006
 C         -4.6752047994        0.5145899503        1.5863333310
 C         -5.8998068196        0.1453586013        0.7320559908
 C         -6.2586724593        1.1593256521       -0.3534291785
 H         -7.0514181495        0.7176306528       -0.9615673987
 H         -6.6666495890        2.0572541619        0.1153482621
 C         -5.1041610092        1.5680528523       -1.2713339683
 H         -4.5256868595        0.6851052323       -1.5485714689
 H         -5.5332525291        1.9759577331       -2.1885125680
 C         -4.1779678289        2.6210765216       -0.6441857876
 H         -4.6476283787        3.0242945412        0.2526779927
 H         -4.0619583786        3.4593670720       -1.3346136371
 C         -2.7641470190        2.1261560409       -0.3102143880
 H         -2.3277756887        2.7670592303        0.4647874124
 H         -2.1250471890        2.2344373413       -1.1926118680
 H         -6.7642019196        0.0339923311        1.3898135708
 H         -5.7074113699       -0.8296264485        0.2770971502
 H         -4.7531461495       -0.0005639403        2.5463207107
 H         -4.6278862791        1.5841163302        1.7689074317
 O         -3.1866222400       -1.2736814000        1.2917323797
 C         -2.1090717503       -1.9803763700        0.7952699992
 O         -2.0483686906       -3.1634667703        1.1891500984
 O         -0.6161710695        0.6579810108       -1.1865804491
 C         -0.0558250304       -2.1978661598       -0.5374659610
 C          1.1310992297       -2.0758044008        0.3891018890
 C          1.8654685793       -3.1989600413        0.7525508082
 C          2.9731682794       -3.0794052322        1.5718837582
 C          3.3784492998       -1.8389787026        2.0303206590
 C          2.6485821902       -0.7095876521        1.6749711598
 C          1.5305875801       -0.8351564512        0.8621104498
 H          0.9639921204        0.0462482691        0.6083446804
 N          3.0313396406        0.5569057574        2.1281391106
 S          2.6110246810        1.9455698981        1.3061327816
 O          3.5939492814        2.9165669575        1.7467363022
 O          1.2386352412        2.2917886084        1.5811806419
 C          2.8508719508        1.6063036892       -0.4289614287
 C          3.9326987506        0.8445427991       -0.8254250492
 C          4.1136893004        0.5906993699       -2.1747770394
 C          3.2199361005        1.1064380008       -3.1009656890
 C          2.1492696808        1.8823946809       -2.6876266584
 C          1.9602586710        2.1364027201       -1.3384755383
 H          1.1220438512        2.7094706201       -0.9778496978
 H          1.4484963909        2.2794658216       -3.4041780281
 H          3.3571819104        0.9010122415       -4.1511209091
 H          4.9462197302       -0.0128242201       -2.4987216598
 H          4.6138898805        0.4533336984       -0.0875714595
 H          3.9336434307        0.6172449169        2.5745205506
 H          4.2443385699       -1.7422753233        2.6669702191
 H          3.5308409791       -3.9594094225        1.8534148676
 H          1.5532235090       -4.1709443309        0.4017776676
 H         -0.4115874608       -3.2367067797       -0.4878920817
 C          0.3956498096       -1.9109069890       -1.9576996509
 C          1.0200600692       -3.0060461487       -2.7664870616
 C         -0.3540065106       -2.5130403980       -3.1058960612
 H         -0.4903802005       -1.9196020374       -3.9970248408
 H         -1.1964958908       -3.1484813479       -2.8728450516
 H          1.8339394493       -2.7533765385       -3.4278318915
 H          1.1067410089       -3.9817968190       -2.3135032323
 H          0.7804286299       -0.9075480790       -2.0859552902
