  62
        -98.93457279
 C          2.3172545833        1.1647717826        0.1380615467
 C          3.2304681449        0.4881139211        0.9826684876
 C          4.1778318159       -0.4385047022        0.3386886387
 C          4.0964291820       -0.6439570466       -0.9891156739
 C          4.9454445704       -1.4796349148       -1.9242413304
 C          5.9204201368       -2.5181105994       -1.3759806336
 C          5.2600727666       -3.7207587327       -0.7024710541
 H          4.7617613764       -4.3181638864       -1.4700772970
 H          6.0439861199       -4.3376165853       -0.2578776194
 C          4.2223237157       -3.3894932566        0.3671646024
 H          3.8245726246       -4.3329005323        0.7514190885
 H          3.3873876142       -2.8505453147       -0.0860329241
 C          4.7438571451       -2.5871354518        1.5577051603
 H          5.6008621041       -3.0994848392        1.9991608161
 H          3.9496352041       -2.5579431177        2.3090389141
 C          5.1454077988       -1.1336566240        1.2530245401
 H          5.1318824732       -0.5768261649        2.1946677122
 H          6.1562902322       -1.0781252141        0.8560431444
 H          6.6330622623       -2.0482080142       -0.7045816940
 H          6.4904928502       -2.8915248050       -2.2309454876
 H          5.5094072715       -0.7618782122       -2.5302649745
 H          4.2432547020       -1.9710070661       -2.6051932977
 O          3.1545412921       -0.0188588966       -1.7531916908
 C          2.2445822320        0.8874512807       -1.2265876903
 O          1.4502381014        1.3464368663       -2.0663425968
 O          3.2595664584        0.6548934727        2.2322265831
 C          1.3562748666        2.1488697292        0.7788478599
 C         -0.0544818644        1.8948844317        0.3092285791
 C         -0.8454650908        2.8513850500       -0.3119853350
 C         -2.1390210684        2.5467082840       -0.6993044023
 C         -2.6706314504        1.2903799509       -0.4778561772
 C         -1.8891586410        0.3250077286        0.1440024339
 C         -0.5974324671        0.6354635675        0.5373473863
 H          0.0113783967       -0.1184037461        1.0237088808
 N         -2.4225022668       -0.9603911960        0.3618907722
 S         -3.8505293193       -1.0579371326        1.2441064545
 O         -3.9627141496        0.0324105895        2.1858087248
 O         -3.8596170514       -2.3923186926        1.8036322213
 C         -5.1305895176       -0.9346808842        0.0134588662
 C         -6.0851756667        0.0586274410        0.1116568629
 C         -7.0779383515        0.1310102129       -0.8531672067
 C         -7.0984278709       -0.7864256914       -1.8925085878
 C         -6.1338230307       -1.7797843351       -1.9748634834
 C         -5.1393898718       -1.8586402315       -1.0130518847
 H         -4.3738675521       -2.6161988858       -1.0383248942
 H         -6.1531785572       -2.4915893698       -2.7843595334
 H         -7.8707677957       -0.7273555824       -2.6430420516
 H         -7.8288815223        0.9020854206       -0.7908197008
 H         -6.0246562693        0.7532771913        0.9340942268
 H         -1.7480002521       -1.6188232133        0.7246985311
 H         -3.6746868693        1.0482009959       -0.7857178364
 H         -2.7398675841        3.2987199085       -1.1875083397
 H         -0.4436245169        3.8307853107       -0.5119027659
 H          1.3961608034        1.9058850872        1.8547463812
 C          1.7819603922        3.6042080943        0.6530204061
 C          3.2258501966        3.9769321588        0.5028521987
 C          2.2755564826        4.1881625321       -0.6354869694
 H          1.9900954462        5.2006177995       -0.8810900945
 H          2.3376030545        3.5322758200       -1.4893961767
 H          3.5903761815        4.8402722545        1.0390262576
 H          3.9454727616        3.1745740719        0.4269608080
 H          1.1844669884        4.2542587365        1.2850513682
