  62
        -98.93036595
 C         -2.4721731402       -1.3435410209       -0.1187554835
 C         -2.1782699712       -0.0544455373       -0.6277423876
 C         -3.3454552879        0.7995674190       -0.8991502318
 C         -4.5891343187        0.3265770936       -0.7055367982
 C         -5.8728021045        1.0668210149       -0.9671753665
 C         -6.3111393436        1.9805983928        0.1853540753
 C         -5.4787255376        3.2513902465        0.3598522092
 H         -5.4152911237        3.7767960605       -0.5934474828
 H         -6.0212661134        3.8972414880        1.0529892623
 C         -4.0661781521        3.0127838047        0.9120090359
 H         -4.0120166285        2.0183604222        1.3611510249
 H         -3.8581819669        3.7335414353        1.7059691717
 C         -2.9491759883        3.1471254953       -0.1234588781
 H         -2.9054012360        4.1771516169       -0.4848007928
 H         -1.9967160175        2.9221310365        0.3647536755
 C         -3.0911148151        2.2119735136       -1.3317241020
 H         -3.8892235195        2.5609732199       -1.9869017512
 H         -2.1494262761        2.2251184803       -1.8866838428
 H         -6.2949080654        1.4042602869        1.1131114170
 H         -7.3457996955        2.2734117139       -0.0067006184
 H         -5.7780758105        1.6522222796       -1.8820340896
 H         -6.6434000116        0.3076883628       -1.1170551970
 O         -4.8280622174       -0.9322596515       -0.2500824877
 C         -3.7842261842       -1.7804530767        0.0759404882
 O         -4.1466708880       -2.8886224828        0.5218021217
 H          1.2267051041       -1.3180421693       -0.3311177695
 C          0.8993886668       -1.2031163604        0.6836716726
 C         -0.3435677780       -1.6514690975        1.1015963101
 C         -0.7149193492       -1.4136158881        2.4259159646
 C          0.1216121043       -0.7452403658        3.2969140699
 C          1.3577119397       -0.2950692780        2.8689114428
 C          1.7447701380       -0.5278736767        1.5555699211
 N          3.0231953339       -0.1254733432        1.1190321403
 S          3.2638228307        0.6414418352       -0.3660737320
 O          2.7036252802        1.9756598772       -0.3381431424
 O          2.8500088293       -0.2229062456       -1.4388017249
 C          5.0454601368        0.7375523029       -0.3390215897
 C          5.7637198553       -0.4103441176       -0.6145289014
 C          7.1478033143       -0.3620981185       -0.5731296309
 C          7.7881900825        0.8273569221       -0.2580335814
 C          7.0545806829        1.9719086860        0.0142022938
 C          5.6694185727        1.9292028572       -0.0244483164
 H          5.0587447247        2.7958102505        0.1721705983
 H          7.5551569371        2.8957446453        0.2558255899
 H          8.8657330022        0.8628915556       -0.2271445144
 H          7.7212951851       -1.2496855926       -0.7867605485
 H          5.2231646961       -1.3087667259       -0.8627757324
 H          3.4997895131        0.4177971749        1.8282061974
 H          2.0141696972        0.2334689616        3.5441223840
 H         -0.1918909087       -0.5674623365        4.3147729991
 H         -1.6866049850       -1.7521371294        2.7610801078
 C         -1.3743561010       -2.3395197245        0.2420022788
 H         -1.8742283944       -3.0767124579        0.8919412035
 C         -0.9743294930       -3.1259228839       -0.9989569865
 C         -0.1277519201       -2.6287784446       -2.1297508211
 C          0.3733540057       -3.7326677242       -1.2451059552
 H          0.4101952823       -4.7320517650       -1.6530987856
 H          1.1679951851       -3.5134375846       -0.5503024626
 H         -0.4409957082       -2.8833620264       -3.1330397561
 H          0.3117428921       -1.6459225665       -2.0652276988
 H         -1.8234387098       -3.7346703755       -1.3049590603
 O         -1.0177691293        0.3769511719       -0.8480529218
