  62
        -98.94753974
 C          1.3388253506       -1.6258083234        0.5052768682
 C          1.1947522983       -0.3165512328        1.0291281127
 C          2.3804905296        0.5497872477        0.9277972392
 C          3.5104927615        0.0738315307        0.3770002850
 C          4.7770601654        0.8565379339        0.1865349877
 C          4.8189731675        1.5296971608       -1.1915912141
 C          3.5509764841        2.3110278479       -1.5365306095
 H          3.7118189258        2.7812125082       -2.5094833220
 H          2.7153215185        1.6161962406       -1.6545354817
 C          3.1660568486        3.3831992856       -0.5081811133
 H          4.0256785739        3.6247306808        0.1188473096
 H          2.8866187864        4.2936072706       -1.0430397386
 C          1.9758819153        3.0048260246        0.3759000925
 H          1.1603148732        2.6454499339       -0.2583494253
 H          1.6318163188        3.9111111456        0.8836276543
 C          2.2539152772        1.9508243797        1.4561458473
 H          3.1433022102        2.2319450758        2.0246569529
 H          1.3977552936        1.9365875029        2.1369647865
 H          5.6797720138        2.2004633171       -1.2221388656
 H          4.9619053601        0.7577709763       -1.9513088144
 H          4.8552193572        1.6065990833        0.9710671876
 H          5.6197754221        0.1677466189        0.2690870422
 O          3.6170831298       -1.1900474615       -0.1065023700
 C          2.5374733359       -2.0543942121       -0.0731779837
 O          2.7702308830       -3.1756316023       -0.5706657807
 H         -1.2474306520       -0.4525404097       -0.0254198202
 C         -1.3796089739       -1.2026357584       -0.7867901347
 C         -0.6997002003       -2.4072249890       -0.6828021771
 C         -0.8709591639       -3.3602564534       -1.6798358532
 C         -1.6967773191       -3.1037272721       -2.7603439659
 C         -2.3527469316       -1.8909938871       -2.8739999357
 C         -2.1862675175       -0.9318994801       -1.8810860955
 N         -2.8425161449        0.3048925558       -1.9462274421
 S         -2.0972388134        1.6760950654       -1.3356589062
 O         -2.7964836241        2.7738903637       -1.9762898839
 O         -0.6693378236        1.6474737400       -1.5546583175
 C         -2.4998712322        1.7023053030        0.3981657301
 C         -3.5472507991        0.9434219131        0.8790240165
 C         -3.8615131587        1.0172062178        2.2265548915
 C         -3.1333118864        1.8472172218        3.0640686580
 C         -2.0903736082        2.6089462802        2.5627310050
 C         -1.7702779760        2.5388840095        1.2169789578
 H         -0.9583098210        3.1063909808        0.7923697712
 H         -1.5196714724        3.2510387928        3.2147210478
 H         -3.3759352651        1.8972692431        4.1140950849
 H         -4.6700196529        0.4213294263        2.6192691182
 H         -4.0879552287        0.2974327452        0.2071766439
 H         -3.3416847872        0.4917901008       -2.8031798206
 H         -2.9839091446       -1.6843013180       -3.7249876992
 H         -1.8214806175       -3.8509235403       -3.5295455325
 H         -0.3372597540       -4.2971467704       -1.6134046133
 C          0.2174658614       -2.6554544541        0.4903976439
 H          0.7077180373       -3.6260385417        0.3340596996
 C         -0.5676118786       -2.7167530665        1.7863800147
 C         -1.3342486095       -3.9623111684        2.1103757776
 C         -0.0982456787       -3.6192072322        2.8856505230
 H         -0.2020373136       -3.2832750729        3.9062639717
 H          0.7945427009       -4.2013010220        2.7072489039
 H         -1.2797745114       -4.7810378589        1.4087661044
 H         -2.2910444745       -3.8641941817        2.5992518956
 H         -1.0000730777       -1.7673484157        2.0722440337
 O          0.1487246308        0.1277764842        1.5717033559
