  62
        -98.94120567
 C         -2.6690174198       -0.3799003739       -0.4959135757
 C         -3.0611861828        0.5335696186        0.5188274639
 C         -2.8111794881        1.9524439534        0.2548151560
 C         -2.2671943996        2.3229833553       -0.9179306554
 C         -1.9194074571        3.7260920831       -1.3320281513
 C         -0.5469034867        4.1828047999       -0.8173793404
 C         -0.4913879367        4.5082019786        0.6759124025
 H          0.4455852232        5.0399493795        0.8527197855
 H         -1.3067556976        5.1857974806        0.9326485015
 C         -0.5337496870        3.2766424261        1.5919979179
 H         -0.2702800274        2.3831781297        1.0182213311
 H          0.2269871405        3.3753710466        2.3706286988
 C         -1.8722709803        3.0523508988        2.2974493187
 H         -2.0573164986        3.8721191920        2.9956244605
 H         -1.7987982317        2.1267423942        2.8746581883
 C         -3.0787424208        2.9316141822        1.3571224512
 H         -3.9269960062        2.5583451102        1.9362168071
 H         -3.3355165601        3.9075071786        0.9459978035
 H          0.1875293946        3.4043644017       -1.0412493889
 H         -0.2684870108        5.0797408008       -1.3757537590
 H         -1.9005637980        3.7350675470       -2.4238584602
 H         -2.6898054308        4.4171334173       -0.9892679531
 O         -1.9663774936        1.4278563168       -1.8916525167
 C         -2.0935333816        0.0613888704       -1.6872477124
 O         -1.6699331788       -0.6174969263       -2.6466087842
 H         -0.2743981448       -1.6015461098       -1.1018203495
 C         -0.2757360053       -2.0046253375       -0.0990858355
 C         -1.4833127213       -2.2501875558        0.5391810799
 C         -1.4557523301       -2.7629294286        1.8299009342
 C         -0.2508890991       -2.9968748478        2.4716906706
 C          0.9488564079       -2.7024577962        1.8483718161
 C          0.9278878803       -2.2033294012        0.5544288489
 N          2.1510297574       -1.8067506202       -0.0599615750
 S          2.5004173860       -0.2009560738        0.3717957226
 O          2.4544237817       -0.1083911540        1.8086988102
 O          1.6488164716        0.7141018721       -0.3597064887
 C          4.1857225524       -0.0602610864       -0.1914270916
 C          5.1844425335       -0.6100382328        0.5889652997
 C          6.4940567751       -0.5494451837        0.1409991189
 C          6.7810772363        0.0543129653       -1.0744096826
 C          5.7677161920        0.6012256595       -1.8466393057
 C          4.4551082176        0.5426172410       -1.4043002867
 H          3.6359890616        0.9594198326       -1.9689219250
 H          5.9928640319        1.0716727086       -2.7902883928
 H          7.8010737750        0.1008998727       -1.4217754204
 H          7.2850216598       -0.9722931314        0.7390596642
 H          4.9126416832       -1.0618953862        1.5282468507
 H          2.0573879045       -1.8156920095       -1.0692681684
 H          1.8921872103       -2.8287898539        2.3530979215
 H         -0.2478571602       -3.3876124105        3.4778733934
 H         -2.3876538330       -2.9453585989        2.3446768150
 C         -2.7761239051       -1.8543762362       -0.1365386453
 H         -3.5784320089       -1.9197642178        0.6108978058
 C         -3.1123045441       -2.7781196356       -1.2872762867
 C         -3.7221183933       -4.1139094226       -0.9879634741
 C         -4.5486999309       -3.0379985318       -1.6240842761
 H         -4.8208859023       -3.1378508956       -2.6637971320
 H         -5.2991878321       -2.5472554733       -1.0218006112
 H         -3.9154545494       -4.3556000212        0.0460711857
 H         -3.4268022218       -4.9591751743       -1.5900387606
 H         -2.4138856543       -2.7146643724       -2.1109575897
 O         -3.5916292173        0.1703390071        1.6027904206
