  62
        -98.94127508
 C          1.6931125781        1.4380871848       -0.2350958728
 C          2.7504513374        0.7549813558        0.4054342249
 C          3.2021400244       -0.4944273666       -0.2258610535
 C          2.6031483014       -0.9183100514       -1.3522664455
 C          2.9312020092       -2.1283978279       -2.1911051689
 C          3.2074969878       -3.4474742101       -1.4580675113
 C          2.4081696577       -3.6520019526       -0.1627743700
 H          1.6018433553       -2.9180932935       -0.0904445303
 H          1.9378380613       -4.6374954547       -0.1873132998
 C          3.2816863783       -3.5844550895        1.0925369508
 H          4.2040055670       -4.1413061367        0.9102090248
 H          2.7532754319       -4.0814785717        1.9101634965
 C          3.6340193415       -2.1774451074        1.5718818844
 H          2.7310818725       -1.6857206164        1.9466150159
 H          4.3231934028       -2.2699806375        2.4152915591
 C          4.2642968035       -1.2548414966        0.5148079701
 H          4.8668020094       -0.5059528276        1.0364296503
 H          4.9090747365       -1.8122672998       -0.1601125830
 H          4.2708374341       -3.5255264866       -1.2338112481
 H          2.9736728640       -4.2512512560       -2.1584370799
 H          2.0697968411       -2.2542794811       -2.8513087681
 H          3.7914901527       -1.8824868309       -2.8212003351
 O          1.5868540455       -0.2277622008       -1.9372389757
 C          1.0675200579        0.9201369063       -1.3684286219
 O          0.0788219166        1.3880213551       -1.9661160036
 H          0.2791581468        0.5528576069        1.7329803450
 C         -0.5587291989        1.1756509165        1.4436848366
 C         -0.3200817942        2.3746399884        0.7823711778
 C         -1.4095537478        3.1606670865        0.4323242360
 C         -2.7003027687        2.7301337841        0.6927401164
 C         -2.9318853198        1.4980480605        1.2776714539
 C         -1.8462157284        0.7209049629        1.6570323526
 N         -2.0762593114       -0.5987758685        2.1518655618
 S         -1.8352352266       -1.7092232058        0.8954442380
 O         -2.0976979611       -3.0125824390        1.4696214227
 O         -0.5300906745       -1.5554270841        0.2890912385
 C         -3.1282306417       -1.2561189631       -0.2337423219
 C         -4.3934628005       -1.7647243822       -0.0113994060
 C         -5.4287836762       -1.3719161957       -0.8434757542
 C         -5.1821667560       -0.4758009791       -1.8732715901
 C         -3.9066079716        0.0259661510       -2.0806218446
 C         -2.8637035414       -0.3641261630       -1.2539558289
 H         -1.8622046540        0.0163972184       -1.3908181048
 H         -3.7094099895        0.7255108010       -2.8770267415
 H         -5.9883655096       -0.1650748241       -2.5189786236
 H         -6.4218389806       -1.7605669878       -0.6853008393
 H         -4.5323475468       -2.4580310893        0.8017586372
 H         -1.4468982610       -0.8452466601        2.9054821173
 H         -3.9313877031        1.1276609807        1.4370053678
 H         -3.5364949040        3.3483303122        0.4053003074
 H         -1.2480834062        4.1015083559       -0.0679992627
 C          1.1097372791        2.6831297546        0.4142204603
 H          1.6908866916        2.8373360115        1.3353734214
 C          1.2651275009        3.8939267580       -0.4789307208
 C          1.3218148914        5.2676215844        0.1183171556
 C          2.5586858478        4.6497283563       -0.4589871654
 H          2.9440897507        5.0350880074       -1.3908304838
 H          3.3249037507        4.3031281809        0.2191290550
 H          0.8600855970        6.0824737059       -0.4181737284
 H          1.2510976505        5.3488348018        1.1923825598
 H          0.7736286659        3.7687248666       -1.4369900923
 O          3.2943728466        1.1708803560        1.4664839691
