  62
        -98.94611778
 C         -1.9305971440       -1.2798110453        0.2795796982
 C         -1.7167324162        0.1018452597        0.0636008518
 C         -2.8641498628        0.9775999580        0.3413366715
 C         -4.0143897160        0.4369088404        0.7834286452
 C         -5.2746561863        1.2054233500        1.0541416809
 C         -6.1694655523        1.2621140644       -0.1919001795
 C         -5.4337726042        1.6911548197       -1.4614210644
 H         -4.7032668645        0.9234857390       -1.7272644920
 H         -6.1698005039        1.7258040739       -2.2676168799
 C         -4.7257630687        3.0491909144       -1.3564578633
 H         -5.1286551200        3.6129223333       -0.5142587002
 H         -4.9355965193        3.6239584986       -2.2610033081
 C         -3.2039323565        2.9624783510       -1.2271537536
 H         -2.7926229468        3.9637623797       -1.3806037593
 H         -2.8051684045        2.3211529801       -2.0174087799
 C         -2.6766613554        2.4520851903        0.1197356878
 H         -1.5957664698        2.6192875404        0.1361697808
 H         -3.1272362054        3.0250919831        0.9326048771
 H         -6.5921167896        0.2689182716       -0.3605460744
 H         -6.9919969007        1.9520986687        0.0049908108
 H         -5.8173835864        0.7040025241        1.8572480417
 H         -5.0179771800        2.2128585063        1.3757764116
 O         -4.1755593993       -0.8946857581        0.9944353798
 C         -3.1448050007       -1.7853238251        0.7436581373
 O         -3.4246169358       -2.9785350295        0.9770460276
 O         -0.6246366464        0.5819514015       -0.3364344791
 C         -0.8106605685       -2.2666493215        0.0033505309
 C          0.4173470048       -1.8887932135        0.7949395021
 C          0.2945074696       -1.6911362110        2.1687561040
 C          1.3900669005       -1.3450922566        2.9347647534
 C          2.6323525642       -1.1798822748        2.3460754404
 C          2.7676600647       -1.3815734102        0.9788188833
 C          1.6668312262       -1.7461086776        0.2135911131
 H          1.8047103739       -1.8908026860       -0.8442949034
 N          4.0211800008       -1.2463950102        0.3520668751
 S          4.2021647035       -0.1815419498       -0.9281714343
 O          3.3243093042       -0.5532470000       -2.0062076855
 O          5.6189673190       -0.2034850391       -1.2218025296
 C          3.7645405922        1.4134196076       -0.2586081807
 C          4.7850295425        2.2609019377        0.1297718728
 C          4.4665161880        3.4799299501        0.7046764592
 C          3.1364315070        3.8260663243        0.8907172685
 C          2.1261983398        2.9615250628        0.5002397624
 C          2.4352244646        1.7408797831       -0.0810254563
 H          1.6546988634        1.0625211089       -0.3877435831
 H          1.0888661423        3.2199161770        0.6431084115
 H          2.8849796256        4.7735422177        1.3409914735
 H          5.2524810562        4.1532754413        1.0068371280
 H          5.8039441365        1.9507115740       -0.0376069272
 H          4.7856137768       -1.1144689363        0.9999552893
 H          3.4892107271       -0.9019917040        2.9410720096
 H          1.2766606699       -1.1948254901        3.9977811441
 H         -0.6786751287       -1.8112557833        2.6260504990
 H         -1.1661485612       -3.2417325113        0.3678105057
 C         -0.5621598214       -2.3681425104       -1.4872375902
 C         -0.0173848622       -3.6338174627       -2.0751170932
 C         -1.4464905754       -3.2507010401       -2.3133770767
 H         -1.7348132161       -2.9160624692       -3.2987282910
 H         -2.2183967076       -3.8019722417       -1.7957396241
 H          0.6801338471       -3.5597832920       -2.8961119616
 H          0.1817664053       -4.4529829207       -1.4006122423
 H         -0.2458478481       -1.4284891195       -1.9271228541
