  62
        -98.94737199
 C         -1.7891403046       -1.1714360036       -0.4443364543
 C         -1.2473494005       -1.8520313797        0.6758951035
 C         -0.1190718788       -2.7577268002        0.3919398745
 C          0.3463076426       -2.8736458212       -0.8637544070
 C          1.5228924235       -3.7076440958       -1.2780559582
 C          2.8305264157       -2.9059646840       -1.2278444672
 C          3.0651703214       -2.1737374999        0.0936421976
 H          4.0470191648       -1.6981452121        0.0331177854
 H          2.3342086330       -1.3700274079        0.2046423687
 C          3.0047514005       -3.0663028202        1.3403813495
 H          3.1301009633       -4.1133677416        1.0597594781
 H          3.8356019139       -2.8027828913        1.9983046553
 C          1.7230566679       -2.9048762724        2.1606676625
 H          1.5395977994       -1.8423077844        2.3412720282
 H          1.8786857605       -3.3796354154        3.1338364797
 C          0.4575525384       -3.5216550214        1.5502663008
 H          0.6542920607       -4.5581315835        1.2647757033
 H         -0.3156660972       -3.5193641642        2.3244831196
 H          2.8165449433       -2.1638344320       -2.0293110639
 H          3.6587633920       -3.5925199137       -1.4131529405
 H          1.3563745444       -4.0467805849       -2.3020931712
 H          1.5925644144       -4.5758669389       -0.6255001646
 O         -0.1958611132       -2.2050835404       -1.9133831118
 C         -1.2631669252       -1.3425617557       -1.7288211002
 O         -1.6558906626       -0.7906536707       -2.7761779478
 O         -1.6659279088       -1.7344237959        1.8571369955
 C         -2.9173687714       -0.1539899606       -0.3650795704
 C         -2.3505750690        1.2377469141       -0.1953109315
 C         -2.8337182659        2.3021235400       -0.9473421093
 C         -2.2845852448        3.5645150578       -0.8139604679
 C         -1.2212669366        3.7807598359        0.0440568124
 C         -0.7290588333        2.7230270815        0.7997226407
 C         -1.3164355991        1.4697829046        0.6997913639
 H         -0.9399832667        0.6658597116        1.3134640429
 N          0.3734657499        2.8999779522        1.6559624079
 S          1.6630118817        1.8374072167        1.5342110411
 O          1.2888599614        0.5384287851        2.0242049444
 O          2.7410245590        2.5003460625        2.2354046558
 C          2.0379041455        1.7642578365       -0.2075468646
 C          1.3432031445        0.8829109172       -1.0107924672
 C          1.5967742555        0.8686234225       -2.3729725516
 C          2.5433023502        1.7297980588       -2.9060864737
 C          3.2385000091        2.6063605141       -2.0860713662
 C          2.9810444746        2.6305989863       -0.7249925190
 H          3.5012254799        3.2913822616       -0.0505518789
 H          3.9763264151        3.2716102085       -2.5047914284
 H          2.7381143995        1.7143090063       -3.9668204788
 H          1.0407551260        0.1897654118       -3.0018263805
 H          0.6128878864        0.2212519835       -0.5715177932
 H          0.7158707856        3.8499907543        1.6914831764
 H         -0.7714718988        4.7583231493        0.1285808721
 H         -2.6713716948        4.3833323747       -1.4008172881
 H         -3.6337861048        2.1311478146       -1.6516049631
 H         -3.4199056280       -0.1856126562       -1.3424637716
 C         -3.9501871224       -0.4344003963        0.7075821400
 C         -5.3490522831        0.0695542187        0.5235618289
 C         -5.0614011035       -1.3979777772        0.4248703875
 H         -5.3900314249       -2.0489310896        1.2207618285
 H         -5.0861189295       -1.8582172866       -0.5524257297
 H         -5.8809692113        0.4321581272        1.3895995084
 H         -5.5784406819        0.6006355564       -0.3876471756
 H         -3.5408662901       -0.4300702352        1.7091033139
