  62
        -98.93804551
 C         -1.4129654754       -1.4898786815       -0.1291316946
 C         -2.5894698207       -1.3028310803        0.6355405224
 C         -3.4542283242       -0.1680074506        0.2633816733
 C         -3.0848718815        0.6232217171       -0.7596639078
 C         -3.7812340842        1.8427918202       -1.3083507712
 C         -5.3018919587        1.7341451765       -1.5014147783
 C         -6.1018539075        2.5876121262       -0.5158760877
 H         -5.5878702243        3.5420520442       -0.3847324082
 H         -7.0795609824        2.8023577646       -0.9531146676
 C         -6.3384980578        1.9489119632        0.8517159527
 H         -7.0630489299        1.1378044012        0.7507855243
 H         -6.7891629347        2.7070066226        1.4966448274
 C         -5.0899560320        1.3967991218        1.5429448943
 H         -4.2473149251        2.0738893616        1.4095775067
 H         -5.2957408444        1.3523436246        2.6145451340
 C         -4.7062778131       -0.0179506432        1.0838361324
 H         -4.5397287915       -0.6540043262        1.9587491641
 H         -5.5395677109       -0.4715512426        0.5390172470
 H         -5.6108939966        0.6919229390       -1.4367131537
 H         -5.5356307788        2.0771877049       -2.5106248485
 H         -3.5510235203        2.6946263609       -0.6639527157
 H         -3.2998832271        2.0381288019       -2.2693139375
 O         -1.9351411285        0.4125174842       -1.4610575666
 C         -1.0781731298       -0.6387349236       -1.1807155334
 O         -0.0863533286       -0.6952376107       -1.9321614033
 H          1.8756831467       -2.1194534235       -1.0588467950
 C          1.8853618410       -1.7695424289       -0.0392112840
 C          0.7890382065       -1.9896749982        0.7791813128
 C          0.8243145462       -1.5068916254        2.0848237414
 C          1.9287691040       -0.8222237718        2.5562810428
 C          3.0105412291       -0.5785804101        1.7271894944
 C          2.9769177894       -1.0454046910        0.4203511788
 N          4.0413747754       -0.7463245730       -0.4496037314
 S          4.5715949303        0.8417016294       -0.4563222258
 O          5.0462939920        1.0844161624       -1.8012937806
 O          5.5536400128        1.0179620708        0.5864960671
 C          3.1488915309        1.8634883241       -0.0998552999
 C          1.9826541062        1.6780769181       -0.8150796853
 C          0.8897952559        2.4814638570       -0.5311845640
 C          0.9799914289        3.4560766661        0.4499553950
 C          2.1608208126        3.6349162747        1.1539564422
 C          3.2549551748        2.8307791908        0.8798303977
 H          4.1885673217        2.9281309354        1.4099606688
 H          2.2297602406        4.3936912959        1.9167459999
 H          0.1250598877        4.0772594523        0.6662315138
 H         -0.0277583029        2.3251972067       -1.0771350491
 H          1.9087313295        0.9092375362       -1.5681020596
 H          3.8864418443       -1.0707444661       -1.3936044648
 H          3.8729090383       -0.0286217836        2.0683413499
 H          1.9444654053       -0.4612822235        3.5732493245
 H         -0.0354500843       -1.6629791518        2.7211174919
 C         -0.4760169470       -2.6231573545        0.2577522731
 H         -0.9722442485       -3.1449468237        1.0863120387
 C         -0.2582423316       -3.6014828947       -0.8766062354
 C          0.3715442859       -4.9303592902       -0.5871499729
 C         -1.0834766953       -4.8503868385       -0.9358840861
 H         -1.4035256728       -5.2103044033       -1.9022868929
 H         -1.8075861471       -5.0088013162       -0.1503175283
 H          0.6369790086       -5.1415793159        0.4376194867
 H          1.0526233145       -5.3487792783       -1.3124437672
 H         -0.0228700361       -3.1236661690       -1.8199314662
 O         -2.9061244238       -2.0545433118        1.5958874016
