  62
        -98.93980383
 C         -1.8436437677       -1.1030648684        0.4954173795
 C         -2.1529898048        0.1873590934        0.9969952643
 C         -3.5167121108        0.6745028379        0.7569286650
 C         -4.3855341872       -0.1106250040        0.0950568432
 C         -5.7891416685        0.2775730982       -0.2671358880
 C         -5.8432529498        0.9359733643       -1.6528946360
 C         -4.8114402288        2.0466733155       -1.8507614916
 H         -3.8096559877        1.6109878660       -1.8325264360
 H         -4.9634541370        2.4569763636       -2.8515580618
 C         -4.8898732819        3.1786473629       -0.8167023173
 H         -4.8169504876        4.1349570432       -1.3390633484
 H         -5.8587293447        3.1566091684       -0.3163315939
 C         -3.7765101431        3.1575673631        0.2322947022
 H         -3.7979786005        4.1097780893        0.7690457455
 H         -2.8065998955        3.0849110942       -0.2664570375
 C         -3.8681643409        2.0393898568        1.2783172535
 H         -3.1385389484        2.2580058962        2.0634283433
 H         -4.8638745159        2.0362451988        1.7263974504
 H         -6.8466393391        1.3377863712       -1.8055018856
 H         -5.6672797846        0.1670245464       -2.4089118999
 H         -6.1779076189        0.9599763157        0.4862984062
 H         -6.4037208083       -0.6242073176       -0.2791955295
 O         -4.0592264305       -1.3422922746       -0.3684737788
 C         -2.7824204118       -1.8671337916       -0.2005343991
 O         -2.6351657750       -2.9906420067       -0.7170273004
 O         -1.3231778008        0.8986208754        1.6233294050
 C         -0.4392101485       -1.6140233737        0.7434421275
 C          0.4933513601       -1.3970933263       -0.4284047481
 C          0.0365080553       -1.2199247650       -1.7276121942
 C          0.9228952987       -0.9862561708       -2.7656469880
 C          2.2835251799       -0.9192506053       -2.5291143196
 C          2.7534339385       -1.1047792861       -1.2362492068
 C          1.8633375650       -1.3476312643       -0.1990888089
 H          2.2397360220       -1.4808545181        0.8051379816
 N          4.1426309040       -0.9819945601       -0.9970369864
 S          4.6939327620        0.6050541021       -0.9592471625
 O          4.2916173745        1.2581434203       -2.1770249476
 O          6.1130621281        0.5306436510       -0.7005305813
 C          3.8519327504        1.3035780649        0.4492215898
 C          2.5121018132        1.6198946821        0.3307037844
 C          1.8125872483        2.0102320614        1.4623209324
 C          2.4691196112        2.0947962072        2.6809641707
 C          3.8195407094        1.7944708892        2.7802698335
 C          4.5165921591        1.3778329630        1.6576848644
 H          5.5615665387        1.1142615592        1.6914734475
 H          4.3248184535        1.8686189527        3.7299643472
 H          1.9161018070        2.3924892149        3.5580182690
 H          0.7534373996        2.2053182261        1.3979331141
 H          2.0345847656        1.5553430831       -0.6339417939
 H          4.4453255885       -1.4501088723       -0.1531821999
 H          2.9844445463       -0.7059874132       -3.3190902004
 H          0.5461933953       -0.8483660797       -3.7679670452
 H         -1.0236193551       -1.2666820426       -1.9268107201
 H         -0.0565680885       -1.0040751490        1.5749414909
 C         -0.4053652342       -3.0721436494        1.1655396564
 C          0.5744471135       -3.5375726624        2.1988704334
 C         -0.8835958027       -3.4507999960        2.5340453517
 H         -1.4508614645       -4.3622687628        2.6456406573
 H         -1.2095889774       -2.6525207502        3.1849884251
 H          1.0186116780       -4.5141296838        2.0817305933
 H          1.2302564606       -2.8050403060        2.6447603483
 H         -0.6452540362       -3.7510776095        0.3567687566
