  62
        -98.93363068
 C          1.6459570299        1.1123169798        0.0222503894
 C          2.1141648799       -0.1345651302       -0.4594481806
 C          3.5774978699       -0.2682909701       -0.5883065507
 C          4.3700908299        0.7601727099       -0.2394667909
 C          5.8723815499        0.7475011401       -0.2401999811
 C          6.3933842701       -0.0203078698        0.9914619389
 C          7.1422124001       -1.3108896098        0.6588520489
 H          8.1379491101       -1.0585036997        0.2882580488
 H          7.2684553803       -1.8655838497        1.5910445690
 C          6.4741383301       -2.2212202099       -0.3761056609
 H          6.9680683602       -3.1930657399       -0.3110035309
 H          6.6687317399       -1.8409395900       -1.3800571310
 C          4.9623154801       -2.4258415300       -0.2135100407
 H          4.7344004902       -3.4690854900       -0.4417504706
 H          4.6586455802       -2.2543148599        0.8193994693
 C          4.0937277399       -1.5645614702       -1.1494062207
 H          4.6395300998       -1.3693647702       -2.0770205208
 H          3.1955003500       -2.1326437402       -1.4103923305
 H          5.5430844802       -0.2483472598        1.6375716490
 H          7.0606546601        0.6235939803        1.5663029188
 H          6.2358968298        0.2912604700       -1.1582713911
 H          6.2057368598        1.7850470701       -0.2097026012
 O          3.8836757299        1.9326779600        0.2441455290
 C          2.5221320499        2.1356097299        0.3939353592
 O          2.2209058198        3.2485797199        0.8680584991
 H         -1.7744995201       -0.3105386806       -0.7867636601
 C         -1.5021244200       -0.5180239605        0.2336619499
 C         -0.5182356899        0.2237279397        0.8665903197
 C         -0.1508908298       -0.1238421402        2.1644213097
 C         -0.7461334796       -1.1924156002        2.8052745599
 C         -1.7390623896       -1.9228274503        2.1754879100
 C         -2.1118345298       -1.5847677404        0.8807431200
 N         -3.1131341898       -2.3040007806        0.2153227302
 S         -4.1400579100       -1.5356790307       -0.8491076097
 O         -5.3327624300       -2.3567853608       -0.8513046795
 O         -3.5090211002       -1.3492244608       -2.1309509098
 C         -4.4962932701        0.0494645693       -0.1088603998
 C         -4.9902548899        0.0798820494        1.1803147002
 C         -5.2597466699        1.3057482094        1.7664432302
 C         -5.0344996401        2.4755007494        1.0569082100
 C         -4.5479153802        2.4285488493       -0.2400590800
 C         -4.2746399802        1.2045751793       -0.8300763099
 H         -3.8902110803        1.1225057792       -1.8344641700
 H         -4.3761883904        3.3393356892       -0.7918153801
 H         -5.2404675801        3.4296325694        1.5157434200
 H         -5.6418744198        1.3462057395        2.7736708302
 H         -5.1625745198       -0.8462949406        1.7037380203
 H         -3.5807791297       -3.0089942706        0.7644928803
 H         -2.2085655495       -2.7567904303        2.6745082802
 H         -0.4424780895       -1.4560096701        3.8072444198
 H          0.6216102802        0.4505480999        2.6580942496
 C          0.1655571899        1.3979455197        0.2119561495
 H          0.1309893999        2.2418267397        0.9208492695
 C         -0.5469237303        1.8650026295       -1.0482806704
 C          0.1728508995        2.6383631895       -2.1110748406
 C         -0.2989020504        1.2438458594       -2.3884751304
 H         -1.1394281905        1.1007178193       -3.0528190203
 H          0.4317822096        0.4524754595       -2.4458712304
 H          1.2326774095        2.8030241796       -1.9807512707
 H         -0.3414013406        3.4614345894       -2.5838399406
 H         -1.5666565103        2.1732531295       -0.8374606103
 O          1.3652549800       -1.0960883603       -0.7715260404
