  62
        -98.93501940
 C         -2.1043230908       -0.7789048917        0.8252945357
 C         -3.2726290415       -1.3521695923        0.2534700299
 C         -4.4666014975       -0.4921044718        0.2132606564
 C         -4.4299061057        0.7145233083        0.8035023742
 C         -5.5499325794        1.7132051342        0.7940060532
 C         -5.4376654583        2.6627581088       -0.4069107195
 C         -5.2196830506        1.9484864531       -1.7409201857
 H         -5.1862551100        2.7148407310       -2.5185180142
 H         -4.2418630440        1.4614589203       -1.7277800025
 C         -6.2970193951        0.9118988915       -2.0897678418
 H         -6.5836266199        1.0433072873       -3.1353768859
 H         -7.1880417368        1.0867671415       -1.4858600788
 C         -5.8532374063       -0.5433543770       -1.9280181968
 H         -4.9098991960       -0.6988316424       -2.4576268120
 H         -6.6032793483       -1.1816614816       -2.4024663212
 C         -5.6832216935       -1.0323593862       -0.4841592413
 H         -6.5860378229       -0.8092625413        0.0879213605
 H         -5.5532079400       -2.1181985880       -0.5123839724
 H         -6.3474769845        3.2636336968       -0.4583598139
 H         -4.5948116798        3.3371685942       -0.2375616144
 H         -6.5007052566        1.1842097075        0.7643400538
 H         -5.4976998623        2.2971716280        1.7144548620
 O         -3.3357551765        1.1739858487        1.4596813757
 C         -2.1545319539        0.4420159393        1.5018030949
 O         -1.2635380631        0.9870907530        2.1805753442
 O         -3.3295865448       -2.5230079838       -0.1986580353
 C         -0.8124693398       -1.5889503702        0.8223572880
 C          0.4027543788       -0.7666822583        1.1680851455
 C          1.1615238428       -1.0401183718        2.2980108549
 C          2.3147578151       -0.3231342404        2.5646355191
 C          2.7433470287        0.6658262130        1.7002026830
 C          2.0030556807        0.9318169429        0.5543856195
 C          0.8516126052        0.2087478967        0.2874239681
 H          0.2739474129        0.4312805993       -0.5994056554
 N          2.4495807065        1.9183971448       -0.3393059101
 S          4.0790274239        1.9688090303       -0.7078054459
 O          4.7887131128        2.7125092579        0.3033588922
 O          4.1468430543        2.5108809556       -2.0476317366
 C          4.6239413122        0.2685007196       -0.6932686540
 C          3.9840618995       -0.6343178047       -1.5193325909
 C          4.3853089041       -1.9599497849       -1.5004654846
 C          5.4137440263       -2.3592492941       -0.6607057686
 C          6.0499031336       -1.4399547646        0.1584062434
 C          5.6517752992       -0.1127152890        0.1448151356
 H          6.1154330560        0.6346017322        0.7680806017
 H          6.8506962647       -1.7520253431        0.8091955426
 H          5.7199779379       -3.3932819727       -0.6467988671
 H          3.8933927251       -2.6777937980       -2.1369369001
 H          3.1895095466       -0.2941046603       -2.1637373435
 H          1.8751043833        2.0289739241       -1.1609433843
 H          3.6278491358        1.2485342029        1.9012445947
 H          2.8852361984       -0.5353659986        3.4559888315
 H          0.8311609524       -1.8063646055        2.9845405791
 H         -0.9132123445       -2.3897264389        1.5710799593
 C         -0.5688058385       -2.2378413672       -0.5392544969
 C          0.7221065197       -2.9618920264       -0.7938327389
 C         -0.5600933284       -3.7259712853       -0.6941221473
 H         -0.9945927173       -4.1465952319       -1.5877316894
 H         -0.7397839115       -4.3186312678        0.1895054776
 H          1.1816828335       -2.8546910041       -1.7642457597
 H          1.4271119060       -3.0309350513        0.0206323448
 H         -0.9802931813       -1.6686940521       -1.3653456407
