  62
        -98.94361288
 C         -1.8029016391        0.8664361222       -0.8203674268
 C         -2.0032050966        0.4017338993        0.5018719876
 C         -3.3999977603        0.3659758539        0.9595138695
 C         -4.3764674015        0.7845900870        0.1338284009
 C         -5.8426228257        0.7499050397        0.4528325044
 C         -6.4798700214       -0.5679307259       -0.0096678174
 C         -5.7097633668       -1.8137424603        0.4285819375
 H         -6.2676448021       -2.6825067635        0.0722398472
 H         -4.7390420841       -1.8281323422       -0.0724883926
 C         -5.4975335247       -1.9288808913        1.9445355028
 H         -6.1991039964       -1.2775967142        2.4670884939
 H         -5.7168663917       -2.9537695922        2.2513040933
 C         -4.0738740895       -1.6190511909        2.4111959228
 H         -3.3600470268       -2.2013770193        1.8228671000
 H         -3.9802266242       -1.9412491961        3.4516703440
 C         -3.6576340852       -0.1439947375        2.3493940059
 H         -4.4044594529        0.4711615837        2.8552294546
 H         -2.7085514445       -0.0446125572        2.8838900333
 H         -7.4994718556       -0.6132111197        0.3773794982
 H         -6.5309292945       -0.5635632443       -1.1010206730
 H         -5.9792572282        0.8750135870        1.5251237684
 H         -6.3273721110        1.5788782060       -0.0655827721
 O         -4.1405129970        1.2467935330       -1.1212679132
 C         -2.8543564268        1.2844681638       -1.6348558789
 O         -2.7792622032        1.7011496219       -2.8090228101
 H          2.0939436615        0.1676339071       -0.4832935555
 C          1.5078251911       -0.6627440070       -0.8374302253
 C          0.2318911612       -0.4525397289       -1.3340434480
 C         -0.4906798759       -1.5477616708       -1.8015200305
 C          0.0455795336       -2.8193426661       -1.7544470908
 C          1.3173460696       -3.0262696476       -1.2489221174
 C          2.0510407540       -1.9400425162       -0.7888420474
 N          3.3259178919       -2.1233827187       -0.2412828852
 S          4.5111486466       -0.9566843621       -0.3604320589
 O          4.4955172783       -0.3052084443       -1.6496060140
 O          5.7342296489       -1.6537100211       -0.0226274262
 C          4.1372266777        0.2165301539        0.9256472095
 C          3.6285306867       -0.2348388179        2.1269540135
 C          3.3663506845        0.6851733781        3.1293467264
 C          3.6219058185        2.0314701403        2.9185439588
 C          4.1399718908        2.4679964151        1.7091627191
 C          4.4020062202        1.5532234439        0.7015960668
 H          4.7951148543        1.8491682598       -0.2583529992
 H          4.3375719299        3.5158608663        1.5471346644
 H          3.4139021774        2.7450328375        3.7003010660
 H          2.9586733138        0.3498194183        4.0694009108
 H          3.4329261316       -1.2860360919        2.2572524685
 H          3.6930326813       -3.0618229107       -0.2850374626
 H          1.7358573333       -4.0203051984       -1.2068205454
 H         -0.5291774015       -3.6589135403       -2.1161566181
 H         -1.4844515490       -1.3863242974       -2.1979217172
 C         -0.3979916492        0.9177578463       -1.3926806997
 H         -0.5075446829        1.1972054955       -2.4511103590
 C          0.4096215951        1.9876512999       -0.6874196237
 C          1.5296544180        2.6827385788       -1.3993222766
 C          0.2520304528        3.4136118337       -1.1183726140
 H          0.2540027780        4.1842606830       -0.3625074568
 H         -0.4196722788        3.6106293757       -1.9414865256
 H          2.4086554799        2.9516331234       -0.8335290320
 H          1.7374464491        2.3866825917       -2.4167152157
 H          0.5199857446        1.7942374382        0.3737038885
 O         -1.0683123704        0.0352756150        1.2596784099
