  62
        -98.94963418
 C         -1.6884504039       -1.2194166838        0.3079119006
 C         -1.3287863771       -0.1476377788       -0.5419242509
 C         -1.8904821777        1.1636144676       -0.1977235474
 C         -2.6537156493        1.2821391673        0.9037495152
 C         -3.3159076317        2.5508147848        1.3556723284
 C         -4.7273818125        2.6863601084        0.7671514339
 C         -4.7918076097        2.4522312223       -0.7420252837
 H         -4.5421512464        1.4094440593       -0.9502314038
 H         -5.8285160327        2.6035900720       -1.0501532002
 C         -3.8739928193        3.3668510545       -1.5649143314
 H         -3.5751230120        4.2273592297       -0.9653408950
 H         -4.4348029270        3.7466440056       -2.4214819837
 C         -2.6254734755        2.6783262554       -2.1190000680
 H         -2.1671500989        3.3459367280       -2.8532106126
 H         -2.9148266776        1.7634347612       -2.6417713890
 C         -1.5450749892        2.3228253883       -1.0893207139
 H         -0.6475975736        2.0213814017       -1.6373865033
 H         -1.2950696413        3.2022178872       -0.4914959616
 H         -5.3764786250        1.9561631413        1.2560611450
 H         -5.1030460644        3.6844484341        0.9999481409
 H         -3.3837314941        2.5316470242        2.4449646233
 H         -2.7003954308        3.3980037210        1.0585881065
 O         -2.9505863770        0.2364545465        1.7175325627
 C         -2.4726845227       -1.0347369764        1.4444025606
 O         -2.8101175387       -1.9037596191        2.2760675925
 O         -0.5706709610       -0.2819497604       -1.5391162043
 C         -1.1392346448       -2.6079967044        0.0354799765
 C          0.3680076822       -2.5563437173       -0.0397204785
 C          1.1114495062       -3.2752127586       -0.9678023700
 C          2.4914053557       -3.1685375103       -0.9965839188
 C          3.1556464745       -2.3293896205       -0.1207359558
 C          2.4210866845       -1.6147678463        0.8182154205
 C          1.0445932790       -1.7560650239        0.8720576483
 H          0.4900900772       -1.1951390192        1.6107019839
 N          3.0427318866       -0.7269802931        1.7223371872
 S          2.6445758569        0.8965284298        1.5831158842
 O          3.4688295545        1.5678991785        2.5660034154
 O          1.2214545460        1.0717067459        1.7162939774
 C          3.1997820576        1.3446596686       -0.0525805413
 C          4.4250134360        1.9709324391       -0.1837821625
 C          4.9002221403        2.2601155583       -1.4522852235
 C          4.1500484347        1.9094498354       -2.5649674191
 C          2.9255134180        1.2775710451       -2.4156649772
 C          2.4403499005        0.9882494738       -1.1488541405
 H          1.4871037242        0.5003199300       -1.0140113942
 H          2.3354800077        1.0004491265       -3.2746377810
 H          4.5202924448        2.1299326631       -3.5537674703
 H          5.8516590198        2.7535000985       -1.5691799900
 H          4.9707301568        2.2254179003        0.7105499261
 H          4.0500554305       -0.8144108699        1.7470293572
 H          4.2294354027       -2.2244763975       -0.1605901797
 H          3.0551040079       -3.7320501491       -1.7241840414
 H          0.6085395793       -3.9151405724       -1.6743144926
 H         -1.4213990413       -3.2243907669        0.9020823250
 C         -1.7807637999       -3.1886177418       -1.2088128700
 C         -2.0052126095       -4.6652982460       -1.3297668668
 C         -3.1679923275       -3.7459344676       -1.1110944335
 H         -3.8530598255       -3.5730027369       -1.9274893942
 H         -3.6374243744       -3.7321923063       -0.1378205399
 H         -1.8960301395       -5.1263507058       -2.2998463875
 H         -1.6929744095       -5.2883394112       -0.5052928632
 H         -1.5270115649       -2.6319531585       -2.1037511000
