  62
        -98.93562688
 C         -2.2558929225       -1.1131977876       -0.5394044717
 C         -3.5448196200       -0.9989544087        0.0356629225
 C         -4.3090879933        0.2200246974       -0.2780827519
 C         -3.7489260480        1.1671244179       -1.0535358311
 C         -4.2899632606        2.4858083584       -1.5656119813
 C         -5.5537526320        3.0973294069       -0.9667177222
 C         -5.4120877776        3.5687545763        0.4802019746
 H         -4.7517326760        4.4395195466        0.4987548883
 H         -6.3947524211        3.8890609341        0.8331343776
 C         -4.8442977820        2.5418589508        1.4570209565
 H         -4.7913908178        3.0121862750        2.4428265884
 H         -3.8213232270        2.2873902693        1.1704258570
 C         -5.6557166459        1.2556264814        1.5995665596
 H         -5.2285174609        0.6890662194        2.4314331576
 H         -6.6884615387        1.4991724226        1.8562357050
 C         -5.6601440252        0.3348356573        0.3671942809
 H         -5.9271268316       -0.6722067577        0.7004306602
 H         -6.4071082427        0.6478709352       -0.3580992429
 H         -6.3878009551        2.4087008258       -1.0635456789
 H         -5.7938905294        3.9729295998       -1.5759554538
 H         -3.4663766572        3.2007826613       -1.4704401838
 H         -4.4505204237        2.3428914396       -2.6399828856
 O         -2.4960968869        1.0188324173       -1.5745309834
 C         -1.7177626896       -0.1012711120       -1.3319903279
 O         -0.5997782545       -0.0653446497       -1.8816836647
 H          1.1439810143       -1.6573565736       -0.8393409155
 C          0.9398311871       -1.5831559093        0.2170984606
 C         -0.3127161906       -1.9267667798        0.7006906981
 C         -0.5620740887       -1.7894630111        2.0634466894
 C          0.4188667751       -1.3194333756        2.9162776827
 C          1.6662490012       -0.9691063641        2.4288582520
 C          1.9205283312       -1.0933489587        1.0700252012
 N          3.1848505806       -0.7341065554        0.5564160066
 S          3.7768425538        0.7785829372        1.0259059796
 O          4.3197751115        0.6596000782        2.3567058189
 O          2.7638159452        1.7962843492        0.8495332811
 C          5.1004507791        0.9990948330       -0.1459242993
 C          4.8316171755        1.6202460811       -1.3508594576
 C          5.8560151763        1.7634415292       -2.2734746373
 C          7.1229386547        1.2823304341       -1.9782869419
 C          7.3764600023        0.6600272867       -0.7650511793
 C          6.3571224456        0.5145005376        0.1624629736
 H          6.5068426338        0.0453896634        1.1206996833
 H          8.3631051118        0.2889146304       -0.5394712122
 H          7.9173981207        1.3954392341       -2.6988967887
 H          5.6612768023        2.2481771065       -3.2167173260
 H          3.8332582827        1.9853235274       -1.5357648906
 H          3.1918769117       -0.7967603299       -0.4538476340
 H          2.4340539006       -0.5810399851        3.0783475165
 H          0.2112740048       -1.2176051532        3.9711059181
 H         -1.5437458953       -2.0384682798        2.4421329887
 C         -1.4345039908       -2.3505392431       -0.2146593142
 H         -2.1086829151       -3.0059371840        0.3525836440
 C         -0.9740129385       -3.0816276003       -1.4576605277
 C         -0.4385630476       -4.4755424287       -1.3291194358
 C         -1.7756410377       -4.2418174061       -1.9635430343
 H         -1.8713798462       -4.3738090977       -3.0308568043
 H         -2.6606044552       -4.5174219131       -1.4090838016
 H         -0.4145835585       -4.9082649458       -0.3404745262
 H          0.3853332877       -4.7723419376       -1.9597137810
 H         -0.5269621871       -2.4315502586       -2.1995057590
 O         -4.0454948221       -1.8873272990        0.7756431451
