  62
        -98.94448912
 C          2.3394363307        0.5713953104        0.1516409997
 C          3.4160053208        0.5888642512        1.0706072296
 C          4.4004329908       -0.4912842489        0.9272254304
 C          4.2127654607       -1.4296976997       -0.0188943688
 C          5.1570651208       -2.5619833299       -0.2995259980
 C          6.1880539906       -2.1754808208       -1.3691927184
 C          6.8726467606       -0.8332326605       -1.1109571396
 H          7.5980698605       -0.6792493512       -1.9127656998
 H          6.1316394206       -0.0344930606       -1.1905421002
 C          7.5821589007       -0.7327142794        0.2465955502
 H          8.5632305707       -0.2776066794        0.0953383397
 H          7.7475116408       -1.7312099890        0.6527878010
 C          6.8505162108        0.1214058815        1.2836523896
 H          6.5988818307        1.0912613911        0.8471863288
 H          7.5347443309        0.3050017422        2.1162563793
 C          5.5714332209       -0.4900841980        1.8693686402
 H          5.7778773010       -1.4993988777        2.2308930511
 H          5.2688791410        0.1254002727        2.7216328497
 H          6.9397210806       -2.9650058708       -1.4249453578
 H          5.6804077805       -2.1208239816       -2.3350587084
 H          5.6625989409       -2.8428971791        0.6223925122
 H          4.5754614208       -3.4129340702       -0.6582635472
 O          3.1523005506       -1.4275895205       -0.8671655787
 C          2.1964155406       -0.4235958105       -0.8151064894
 O          1.2924612905       -0.5299039112       -1.6665608992
 O          3.5436273009        1.4632430220        1.9690849588
 C          1.2898049407        1.6655531404        0.2351680089
 C         -0.0579716993        1.0445405406        0.5046083296
 C         -0.2117733691        0.2583794815        1.6445556203
 C         -1.4159899391       -0.3576487783        1.9209294009
 C         -2.4971875192       -0.2028414390        1.0695633609
 C         -2.3542050293        0.5740447700       -0.0705214798
 C         -1.1427818994        1.2006462398       -0.3413874604
 H         -1.0488606995        1.7976496490       -1.2348657610
 N         -3.4474312594        0.7567559392       -0.9311493798
 S         -4.4402149894       -0.5407980112       -1.3038187886
 O         -3.7221805294       -1.7939659311       -1.3059348676
 O         -5.0853620596       -0.1673000322       -2.5440991188
 C         -5.6537362193       -0.5357028201        0.0012063016
 C         -5.9718886592       -1.7181735596        0.6401119226
 C         -6.9303428491       -1.7034926087        1.6415219127
 C         -7.5514428391       -0.5124147185        1.9842355318
 C         -7.2227395892        0.6662364510        1.3312871207
 C         -6.2669680693        0.6580521002        0.3279029606
 H         -5.9851485394        1.5522372597       -0.2021849602
 H         -7.7072604892        1.5906405012        1.6015089600
 H         -8.2952859290       -0.5029370278        2.7652099818
 H         -7.1866707390       -2.6193934483        2.1494195435
 H         -5.4566737492       -2.6188880098        0.3458793833
 H         -3.2349681096        1.3002698885       -1.7550732203
 H         -3.4360077391       -0.6910057989        1.2734582314
 H         -1.5175036689       -0.9665245775        2.8065828215
 H          0.6343951210        0.1303777021        2.3059276703
 H          1.5690519807        2.2708844511        1.1097435883
 C          1.3361410605        2.5420880293       -0.9980655919
 C          0.8281871704        3.9509323894       -0.9383542730
 C          2.3001824804        3.6884102793       -1.0365232930
 H          2.8040275703        3.9066276886       -1.9663028332
 H          2.9106361805        3.8526510901       -0.1606931432
 H          0.3220340203        4.3547503086       -1.8022959433
 H          0.4378084205        4.3000340202        0.0053730867
 H          1.1930296104        1.9820743185       -1.9158871614
