  62
        -98.93937821
 C         -2.1036295766        0.2494130185        1.0686738274
 C         -2.9346757295       -0.8655531182        0.7948718776
 C         -4.3402734208       -0.5554474403        0.4835998461
 C         -4.7550155340        0.7233409350        0.4764713799
 C         -6.1407574066        1.1768442191        0.1211813732
 C         -6.2584083872        1.4846167868       -1.3781527706
 C         -5.7068212315        0.3806087218       -2.2802850946
 H         -5.8714324964        0.6932336271       -3.3137480979
 H         -4.6263808863        0.3089914392       -2.1349927368
 C         -6.3416408799       -0.9989507320       -2.0557045534
 H         -7.2867859541       -0.8892675100       -1.5226923026
 H         -6.5676487880       -1.4423348268       -3.0277882571
 C         -5.4508241292       -1.9931316192       -1.3085820276
 H         -4.4688247018       -2.0346660759       -1.7861791334
 H         -5.9005545261       -2.9855779866       -1.3977443786
 C         -5.2486917501       -1.7156792131        0.1864551100
 H         -6.2180326419       -1.5795291332        0.6700401582
 H         -4.7655522211       -2.5940253139        0.6242941874
 H         -7.3101518471        1.6582768743       -1.6131635602
 H         -5.7071478718        2.4045614113       -1.5867198802
 H         -6.8534851973        0.4034978353        0.4011529320
 H         -6.3609738167        2.0834101207        0.6874871308
 O         -3.9310742738        1.7673031357        0.7514524458
 C         -2.5949038367        1.5577403715        1.0431250407
 O         -1.9525460103        2.6035615979        1.2703201759
 O         -2.5454676985       -2.0610276743        0.8035284503
 C         -0.6291325924        0.1192845433        1.4133973290
 C          0.2168989756        0.0841566273        0.1655720138
 C         -0.0686013434       -0.7942354102       -0.8764267467
 C          0.7118584291       -0.8072254097       -2.0171995717
 C          1.8027912835        0.0374267417       -2.1332097813
 C          2.1014235424        0.9115400854       -1.0959823522
 C          1.3039678406        0.9366109190        0.0408596668
 H          1.5451936825        1.6303468423        0.8319793384
 N          3.2142383385        1.7747597537       -1.1709100356
 S          4.4262092281        1.5599065341       -0.0344258384
 O          3.9000060288        1.7837750894        1.2864381134
 O          5.5052878183        2.4219289577       -0.4595607918
 C          4.9021989769       -0.1487448092       -0.2289494633
 C          5.9482773753       -0.4620905729       -1.0747967583
 C          6.2676252521       -1.7946647863       -1.2803697017
 C          5.5317410846       -2.7861493140       -0.6488883898
 C          4.4822474619       -2.4554092387        0.1947254375
 C          4.1616683250       -1.1241894327        0.4083566665
 H          3.3561787493       -0.8303248781        1.0608444116
 H          3.9088713515       -3.2245471466        0.6871087963
 H          5.7776878008       -3.8233932731       -0.8128694520
 H          7.0853815475       -2.0554890357       -1.9327419444
 H          6.4956593393        0.3411796590       -1.5411167984
 H          3.6266719859        1.8226700188       -2.0925648033
 H          2.4157924379        0.0240161323       -3.0219223807
 H          0.4757161078       -1.4891247060       -2.8198543627
 H         -0.9030577037       -1.4707397048       -0.7745183599
 H         -0.3778993662        1.0473666977        1.9510666249
 C         -0.3375322881       -1.0460007166        2.3528771112
 C          0.5883199362       -2.1684049633        2.0002742134
 C          1.0098113716       -1.1418860289        3.0057875530
 H          1.0619154178       -1.4232852287        4.0468272696
 H          1.7525086409       -0.4114627790        2.7158566925
 H          0.3286140203       -3.1562166020        2.3489038460
 H          1.0553889322       -2.1580851999        1.0278157060
 H         -1.1932063370       -1.3024659741        2.9674515498
