  62
        -98.94227285
 C         -2.4994276065       -0.0051790224        0.1406049563
 C         -1.5410417997        0.3452266768       -0.8402402603
 C         -1.1421183051        1.7587615604       -0.8870540170
 C         -1.6656832642        2.6199122980        0.0025341377
 C         -1.2414956659        4.0494337780        0.1800225517
 C          0.0875601161        4.0903937270        0.9633409779
 C          1.2719529598        4.6435730656        0.1702467947
 H          1.1753672931        5.7292990305        0.0961884731
 H          2.1735757735        4.4284232732        0.7482779090
 C          1.4435767913        4.0864433438       -1.2463197942
 H          0.7573830531        4.5956098842       -1.9252331804
 H          2.4538348484        4.3456538487       -1.5698786715
 C          1.2521120059        2.5715669576       -1.3958670513
 H          1.4359590003        2.0646440694       -0.4473816183
 H          1.9963778358        2.2005141502       -2.1041698623
 C         -0.1325573867        2.1544436238       -1.9284432536
 H         -0.5433271190        2.9530885356       -2.5523827669
 H         -0.0112521823        1.2689837249       -2.5586796278
 H          0.3205526093        3.0772267055        1.3019916124
 H         -0.0372955117        4.6981496776        1.8615074463
 H         -2.0274553031        4.5601893250        0.7370857409
 H         -1.1308779245        4.5286778361       -0.7902200450
 O         -2.5919850338        2.2530592162        0.9259169512
 C         -3.0031921652        0.9353424543        1.0400648575
 O         -3.8102188127        0.7290551675        1.9703163253
 O         -1.0246627151       -0.4809060622       -1.6382297601
 C         -2.8855314016       -1.4568113903        0.3805500645
 C         -1.6221520327       -2.2842565488        0.4012855788
 C         -1.4213252884       -3.4341074235       -0.3501329812
 C         -0.2074113134       -4.0991833452       -0.3006688763
 C          0.8359594661       -3.6182121052        0.4688006895
 C          0.6424080613       -2.4687928550        1.2270155106
 C         -0.5893444563       -1.8382668740        1.2180950470
 H         -0.7269064329       -0.9484313701        1.8162329709
 N          1.6783738693       -1.9079234568        2.0043045576
 S          2.2193257216       -0.3799057784        1.5732658398
 O          3.2538157325       -0.0632535430        2.5354468389
 O          1.1119357418        0.5386941549        1.5095661854
 C          2.9688925021       -0.6063844454       -0.0304776102
 C          4.3481745619       -0.6387678953       -0.1117300592
 C          4.9445558245       -0.8724114610       -1.3398592194
 C          4.1542388853       -1.0796319407       -2.4606051952
 C          2.7722497358       -1.0490660656       -2.3600734522
 C          2.1667090480       -0.8111751952       -1.1351122458
 H          1.0921908383       -0.7756196856       -1.0442385521
 H          2.1497026975       -1.2092224915       -3.2258451767
 H          4.6166465193       -1.2648934687       -3.4173784331
 H          6.0196138760       -0.8942644298       -1.4183276908
 H          4.9198043052       -0.4721175872        0.7870320270
 H          2.4788438496       -2.5159584982        2.1140257685
 H          1.7929712448       -4.1181005318        0.4789774801
 H         -0.0643659574       -4.9910509893       -0.8914468004
 H         -2.2049745462       -3.7973636232       -0.9944419168
 H         -3.3124686748       -1.4695612162        1.3977254512
 C         -3.9611412131       -1.9988819556       -0.5476972077
 C         -4.9379715131       -1.0772625189       -1.2137267069
 C         -3.9129691926       -1.8005689860       -2.0317434542
 H         -4.2455895434       -2.6089645182       -2.6663992567
 H         -3.0829919483       -1.2405775646       -2.4309544686
 H         -5.9698760808       -1.3876958261       -1.2827028462
 H         -4.8112705956       -0.0160780861       -1.0531685608
 H         -4.3626595984       -2.9435894455       -0.1938336564
