  62
        -98.93836893
 C         -0.8354694717       -1.1273336137        0.2129911519
 C         -1.6243811678       -0.4361898410        1.1655651080
 C         -2.5232634443        0.6073951428        0.6455767471
 C         -2.5077332236        0.8930874874       -0.6670335678
 C         -3.3587265495        1.8859113368       -1.4188580150
 C         -4.8523461043        1.9426578593       -1.0645210979
 C         -5.4708345926        0.6110211818       -0.6142631003
 H         -6.3762811926        0.4258490729       -1.1951698320
 H         -4.7823613853       -0.2114790316       -0.8153452323
 C         -5.8561155588        0.6039338597        0.8673384994
 H         -6.3272217484        1.5588710354        1.1105998586
 H         -6.6007337112       -0.1782872169        1.0338108546
 C         -4.7086702826        0.3502104002        1.8450107793
 H         -4.3927089878       -0.6949927340        1.7839900413
 H         -5.0873726079        0.5081386705        2.8578647038
 C         -3.4603288534        1.2244822978        1.6433030691
 H         -2.9162209185        1.2546993514        2.5916225337
 H         -3.7327895210        2.2402096659        1.3666072744
 H         -5.3740702716        2.3024434662       -1.9528763714
 H         -5.0133013745        2.6862403284       -0.2850452390
 H         -2.9292778241        2.8827168724       -1.2903178565
 H         -3.2430372563        1.6163535031       -2.4710170082
 O         -1.6439206935        0.2880909456       -1.5272957315
 C         -0.7877684875       -0.7271207682       -1.1224713817
 O         -0.0630758970       -1.1636221963       -2.0337579570
 O         -1.5896557010       -0.6870592875        2.4003095163
 C          0.0010250838       -2.2946669040        0.7037269666
 C          1.3975902047       -2.2250825704        0.1443435774
 C          1.9203049780       -3.1594785897       -0.7400578150
 C          3.2075999197       -3.0168344375       -1.2259206197
 C          3.9940315992       -1.9446835157       -0.8478986439
 C          3.4811163527       -1.0066298955        0.0414163704
 C          2.1961263255       -1.1577173056        0.5364338279
 H          1.8074936889       -0.4333478516        1.2381994132
 N          4.2595619400        0.0843636002        0.4508470618
 S          3.5651550290        1.4942671631        0.9888752217
 O          4.6136356083        2.4827380174        0.8430270344
 O          3.0591613123        1.3223284980        2.3284348626
 C          2.2280725317        1.8996792173       -0.1208665125
 C          1.0870346156        2.4624011966        0.4130155368
 C          0.0777093020        2.8755486135       -0.4401768990
 C          0.2201675542        2.7072191659       -1.8083963546
 C          1.3647694455        2.1251635725       -2.3286582097
 C          2.3841813223        1.7245425836       -1.4808674877
 H          3.2853220712        1.2768266452       -1.8669301751
 H          1.4640480852        1.9790544353       -3.3920067261
 H         -0.5673115945        3.0229973241       -2.4741383785
 H         -0.8141545898        3.3211335296       -0.0288974330
 H          1.0072842259        2.5606014066        1.4844450523
 H          5.1143139611        0.2351793677       -0.0628834876
 H          4.9949924254       -1.8295807033       -1.2344608247
 H          3.6008465092       -3.7456334139       -1.9181991729
 H          1.3111776912       -3.9849105018       -1.0689071703
 H          0.0681413796       -2.1460086810        1.7947859758
 C         -0.6618004360       -3.6484418566        0.4874593239
 C         -2.1536543504       -3.7890337432        0.5114396243
 C         -1.4034806191       -3.9874082086       -0.7696064989
 H         -1.3171484790       -4.9904264993       -1.1611210244
 H         -1.4723342257       -3.2260069024       -1.5309555439
 H         -2.5809174478       -4.6517374939        1.0002346974
 H         -2.7388228547       -2.8883040387        0.6278204171
 H         -0.0979863014       -4.4517088247        0.9520131223
