  62
        -98.93841008
 C         -2.5307437469       -0.2029471099        0.0900173282
 C         -2.2765944407       -1.2532946190       -0.8179083780
 C         -1.5849785372       -2.4445017663       -0.2917378572
 C         -1.2551160334       -2.4749632326        1.0131777063
 C         -0.4918514077       -3.5344495931        1.7639290742
 C          1.0141892300       -3.4739292595        1.4761257087
 C          1.3790547506       -3.4234427166       -0.0047552699
 H          0.9900617908       -2.4976386207       -0.4348041048
 H          2.4693088244       -3.3627137214       -0.0722766556
 C          0.9231183783       -4.6211623336       -0.8364476691
 H          1.3135609156       -5.5367769302       -0.3868667731
 H          1.3795758699       -4.5134350765       -1.8236616563
 C         -0.5885197892       -4.7755875831       -1.0337030703
 H         -1.0565609906       -5.2570320110       -0.1788431850
 H         -0.7379450169       -5.4440383308       -1.8865380785
 C         -1.3195051660       -3.4779162883       -1.3601360261
 H         -0.7862654554       -2.9550770171       -2.1634742857
 H         -2.3030138413       -3.7226060244       -1.7795877077
 H          1.4895419372       -4.3382849339        1.9444727972
 H          1.4101938443       -2.5659447731        1.9385226066
 H         -0.8870300792       -4.5217074937        1.5445322256
 H         -0.6496478271       -3.3364158628        2.8265963270
 O         -1.5682021305       -1.4576551602        1.8656174459
 C         -2.1523966050       -0.2858901030        1.4296039947
 O         -2.3035396988        0.5795336537        2.3143631799
 O         -2.5985436322       -1.1957515270       -2.0389793902
 C         -3.0845198334        1.1083161828       -0.4346959374
 C         -2.0348476944        2.1848277953       -0.2820946665
 C         -2.3253660224        3.5073884298        0.0237005070
 C         -1.3051535638        4.4370810032        0.1492477624
 C          0.0189837341        4.0689150851        0.0020051135
 C          0.3199268927        2.7445337157       -0.3017644124
 C         -0.7045697353        1.8327953339       -0.4763230825
 H         -0.4577281814        0.8167252149       -0.7484509812
 N          1.6597042933        2.3113905245       -0.3788977459
 S          2.0221457529        0.6754500138       -0.3821204613
 O          1.7547898903        0.0723377711       -1.6729450496
 O          1.3966982327        0.0697865091        0.7644553971
 C          3.7845696591        0.7662907199       -0.1271201634
 C          4.2428315503        1.0976859446        1.1339065982
 C          5.6082746292        1.1952493460        1.3475399987
 C          6.4892081462        0.9612245949        0.3016904274
 C          6.0153398825        0.6269202474       -0.9575450462
 C          4.6499136636        0.5288106013       -1.1772987733
 H          4.2347479371        0.2647883970       -2.1366493692
 H          6.7021691248        0.4421325583       -1.7677260382
 H          7.5516599710        1.0374092163        0.4707590767
 H          5.9798454836        1.4522895151        2.3263627841
 H          3.5194044823        1.2612288981        1.9160739014
 H          2.2631586646        2.8664898906       -0.9663534447
 H          0.8133088315        4.7873896859        0.1266435005
 H         -1.5473801723        5.4629138009        0.3821077453
 H         -3.3499455582        3.8103069366        0.1671261882
 H         -3.2542086334        0.9449824650       -1.5106545985
 C         -4.4029781573        1.4587457660        0.2215597206
 C         -5.4507219249        2.2154225789       -0.5376789813
 C         -5.6466600675        0.7606078097       -0.2384376248
 H         -6.3810232769        0.4764214604        0.4999599450
 H         -5.5439287778        0.0520037933       -1.0475341083
 H         -6.0566737185        2.9317923232       -0.0037994410
 H         -5.2270577083        2.4947478261       -1.5562994666
 H         -4.2980709840        1.6481133771        1.2836885429
