  62
        -98.93906589
 C          2.3598683799        0.6370385563        0.1231383725
 C          2.6504949387       -0.7533048670        0.1435234699
 C          3.9314984412       -1.1668293470       -0.4420098756
 C          4.7403915552       -0.2318106576       -0.9721653231
 C          6.0945101061       -0.4988163977       -1.5613316314
 C          7.1979717226       -0.3668318272       -0.5024029747
 C          6.9094979987       -1.1343698531        0.7876834611
 H          7.7675356845       -0.9944580405        1.4487057187
 H          6.0454984457       -0.6860896689        1.2836808214
 C          6.6560478654       -2.6353860629        0.5897146158
 H          7.0324700822       -2.9498498536       -0.3842917472
 H          7.2153963777       -3.1879391856        1.3475453867
 C          5.1908895899       -3.0547222136        0.7250426178
 H          4.7807304225       -2.6598726146        1.6581257873
 H          5.1534741507       -4.1455772186        0.7881691569
 C          4.2659036030       -2.6319309009       -0.4235164046
 H          4.6991824268       -2.9398448844       -1.3773972434
 H          3.3136397403       -3.1546650606       -0.2937412573
 H          8.1358699150       -0.7189963849       -0.9355734161
 H          7.3136987869        0.6902912799       -0.2529070618
 H          6.1058092775       -1.4986736358       -1.9907292160
 H          6.2739945902        0.2299347873       -2.3534226517
 O          4.4266430428        1.0860905604       -0.9874253375
 C          3.2420384367        1.5594848377       -0.4408305479
 O          3.1207699311        2.7969142151       -0.5317514966
 H         -1.3033971692       -0.2585763037        0.4922065580
 C         -1.1940796167        0.5190171505       -0.2500839395
 C         -0.0367286779        1.2823606016       -0.2935937568
 C          0.0831727555        2.2624467404       -1.2737351683
 C         -0.9381977917        2.4698013476       -2.1823840709
 C         -2.1029017890        1.7252275443       -2.1192546748
 C         -2.2298182182        0.7401824314       -1.1472193266
 N         -3.3912109260       -0.0438920705       -1.0645831282
 S         -3.9332894778       -0.5008581277        0.4684692354
 O         -3.7991618507        0.6048147137        1.3895929100
 O         -3.2810212190       -1.7292168035        0.8471670958
 C         -5.6546555800       -0.8138955990        0.1238881834
 C         -6.5846766164        0.1783290053        0.3707456070
 C         -7.9165209077       -0.0620237147        0.0713877066
 C         -8.2930791430       -1.2821585427       -0.4696126980
 C         -7.3481708215       -2.2685158967       -0.7112276357
 C         -6.0149609500       -2.0353341013       -0.4134072198
 H         -5.2470060229       -2.7739789739       -0.5745689014
 H         -7.6451063766       -3.2169025325       -1.1290446595
 H         -9.3300195196       -1.4668569995       -0.7016613068
 H         -8.6537309949        0.7013213958        0.2612536537
 H         -6.2467425878        1.1075490786        0.8006552869
 H         -4.1436508016        0.3032112842       -1.6435039925
 H         -2.9050805366        1.9004273028       -2.8200880389
 H         -0.8320968617        3.2316852790       -2.9399676849
 H          0.9839474457        2.8548554012       -1.3159026138
 C          1.0398083807        1.0604708714        0.7427575264
 H          0.7248500135        0.2057370823        1.3580221111
 C          1.1442615929        2.2796303789        1.6405636547
 C          0.0203132413        2.5696473605        2.5883644768
 C          1.3418321174        2.0962665083        3.1135944260
 H          1.9694213135        2.7992172805        3.6406390306
 H          1.4081104007        1.0847361695        3.4878076057
 H         -0.2590577805        3.5988219719        2.7542283921
 H         -0.8145482944        1.8832573163        2.6011022664
 H          1.6364050143        3.1202606383        1.1692867817
 O          1.8708946258       -1.6125884918        0.6381809521
