  62
        -98.94463696
 C          1.6879124892        1.4412490451        0.0538847482
 C          1.6158764023        0.3069160057       -0.7915214921
 C          2.9054349352       -0.2928059541       -1.1690611313
 C          4.0484738268        0.2496071245       -0.7126360121
 C          5.4221282812       -0.2973277672       -0.9693100098
 C          5.8408550198       -1.2813510903        0.1319785068
 C          4.7872587849       -2.3442246393        0.4448511974
 H          5.2039485391       -2.9993903622        1.2130243648
 H          3.9078203310       -1.8618126122        0.8785056998
 C          4.3558328811       -3.1856717041       -0.7644085092
 H          5.0959375379       -3.0968606004       -1.5606561010
 H          4.3237723439       -4.2359262012       -0.4668243675
 C          2.9726105659       -2.8390168980       -1.3188956569
 H          2.2381007905       -2.8406176337       -0.5084927778
 H          2.6810717130       -3.6255404939       -2.0205519317
 C          2.8681318628       -1.5011235497       -2.0617401351
 H          3.6469954800       -1.4421095480       -2.8248653481
 H          1.8944417958       -1.4771736503       -2.5597686854
 H          6.7694193775       -1.7669785289       -0.1732899375
 H          6.0371151550       -0.7157084321        1.0457111211
 H          5.4357322123       -0.7927265752       -1.9380503412
 H          6.1266373798        0.5358469273       -0.9865118416
 O          4.0781598803        1.3451205638        0.0880275469
 C          2.9064765304        1.9532533542        0.5047513830
 O          3.0781087057        2.9312778213        1.2602846290
 H         -1.9177652431        0.6993542574        0.3262595060
 C         -1.4284538254        0.5513262416        1.2719349329
 C         -0.2447191529        1.2137386829        1.5510138449
 C          0.3624655642        1.0065611604        2.7878337341
 C         -0.2065986623        0.1598365170        3.7187677377
 C         -1.3822305389       -0.5125916238        3.4285751157
 C         -1.9904947631       -0.3208257649        2.1953394288
 N         -3.1910496598       -0.9753357460        1.8647182428
 S         -3.2298614878       -1.8726276899        0.4388755337
 O         -4.3522910949       -2.7714403310        0.6207312757
 O         -1.9560562416       -2.5021368614        0.1837548695
 C         -3.6456046756       -0.6942966482       -0.8273924741
 C         -2.7298519417       -0.3781914345       -1.8113999203
 C         -3.0891880826        0.5474703692       -2.7795529815
 C         -4.3451349338        1.1337408129       -2.7476946659
 C         -5.2530206489        0.8006039632       -1.7533329011
 C         -4.9029273517       -0.1239813656       -0.7829687629
 H         -5.5784628261       -0.4178202732        0.0030266106
 H         -6.2282511530        1.2596460564       -1.7316250703
 H         -4.6155961552        1.8558409086       -3.5022297288
 H         -2.3794724328        0.8095439461       -3.5485722308
 H         -1.7492240666       -0.8283283466       -1.7862657899
 H         -3.5780635752       -1.5234119135        2.6207836941
 H         -1.8232719108       -1.1829931137        4.1513369077
 H          0.2711493430        0.0136379790        4.6761075848
 H          1.2892682242        1.5203374456        3.0051442803
 C          0.4278606851        2.1298926352        0.5564607000
 H          0.7716777311        3.0198301181        1.1019261441
 C         -0.4714187134        2.5677869799       -0.5795647540
 C         -1.5704427124        3.5509803067       -0.3136959425
 C         -0.3669359520        3.9666999300       -1.1039456858
 H         -0.4757167846        4.1273026171       -2.1658628114
 H          0.3512756993        4.6239635642       -0.6353675261
 H         -1.6693073414        3.9265691017        0.6935132621
 H         -2.5089803850        3.4241574186       -0.8316117160
 H         -0.6602134677        1.7823563377       -1.2999870789
 O          0.5408142160       -0.1821595015       -1.2246991417
