  62
        -98.93952621
 C         -1.7840663672       -0.6674085025        0.8966438373
 C         -2.9714057044       -1.0969822871        0.2535937942
 C         -4.0657115162       -0.1132593606        0.1991706336
 C         -3.8843297287        1.1166852017        0.7108084345
 C         -4.8917531739        2.2277269819        0.6610790107
 C         -4.7128757943        3.0870787203       -0.5983466684
 C         -4.6104977656        2.2769249756       -1.8907288686
 H         -4.5192926576        2.9884838607       -2.7143699827
 H         -3.6895721557        1.6892999278       -1.8721006204
 C         -5.8010851211        1.3436080707       -2.1511657478
 H         -6.6523927414        1.6495270665       -1.5418641358
 H         -6.1000749246        1.4407258182       -3.1970504617
 C         -5.5099012028       -0.1381466056       -1.9069214732
 H         -4.6032943008       -0.4264115321       -2.4450824828
 H         -6.3358898164       -0.7202463523       -2.3244522665
 C         -5.3532413918       -0.5542459739       -0.4389227826
 H         -6.2095754519       -0.1980730269        0.1373962055
 H         -5.3464932132       -1.6476512681       -0.4044593956
 H         -5.5547487043        3.7784992516       -0.6666311236
 H         -3.7984522691        3.6750533447       -0.4905016153
 H         -5.8937909403        1.8036849153        0.6843633747
 H         -4.7533408499        2.8572007307        1.5417660767
 O         -2.7237626755        1.5041868301        1.2966248297
 C         -1.6568895593        0.6291334046        1.4057210958
 O         -0.6587816401        1.1146903014        1.9728665693
 H          2.1304732906       -1.3449488043        1.0464137064
 C          1.7210882739       -1.4190036520        0.0479877954
 C          0.3476767295       -1.5304195745       -0.1222218816
 C         -0.1561867276       -1.6185431494       -1.4147927313
 C          0.6909786641       -1.5694755183       -2.5075546240
 C          2.0579084781       -1.4442380331       -2.3343397997
 C          2.5740092543       -1.3772959277       -1.0480010223
 N          3.9728633906       -1.2507651683       -0.8871069931
 S          4.6283345315        0.2552344362       -1.2261544927
 O          4.0512416180        0.7411448811       -2.4521042084
 O          6.0624976678        0.0845399325       -1.2067464340
 C          4.1304201764        1.2632552354        0.1590239237
 C          2.8036835769        1.6327209097        0.2655345976
 C          2.3839640625        2.3067422026        1.4017872701
 C          3.2999399325        2.6128183558        2.3972720155
 C          4.6324545263        2.2501524996        2.2684535558
 C          5.0520405772        1.5556790445        1.1453625570
 H          6.0731015350        1.2372177101        1.0098345823
 H          5.3399688912        2.4946743912        3.0445294813
 H          2.9661117336        3.1338014038        3.2808484174
 H          1.3398272636        2.5513431059        1.5184431664
 H          2.1158254121        1.3861091991       -0.5278803212
 H          4.3037012605       -1.5564336307        0.0179364294
 H          2.7301973997       -1.3845034929       -3.1743453875
 H          0.2819562885       -1.6302048147       -3.5048882752
 H         -1.2197281907       -1.7300124033       -1.5583796779
 C         -0.5620423676       -1.5519672448        1.0845130645
 H         -0.0053837997       -1.1131532505        1.9242545272
 C         -0.9084276266       -2.9857849587        1.4413406434
 C          0.0581593868       -3.7970894923        2.2476604803
 C         -1.2269279228       -3.3318481582        2.8632016544
 H         -2.0047381971       -4.0555458420        3.0543320669
 H         -1.1841345251       -2.5354800086        3.5923225158
 H          0.1676578966       -4.8450898658        2.0148804019
 H          0.9720778739       -3.3213400690        2.5695187675
 H         -1.4710096509       -3.4926530210        0.6686111766
 O         -3.1353618768       -2.2335778109       -0.2637960452
