  62
        -98.94081463
 C         -2.5903476810       -1.3240149491        0.2165480240
 C         -2.3950023422       -0.2292938500       -0.6635690925
 C         -3.5050758008        0.7360703195       -0.7430924621
 C         -4.6162494050        0.5369647135       -0.0131738485
 C         -5.7941630856        1.4652676955        0.0351312709
 C         -5.6433303645        2.4940613338        1.1644146088
 C         -4.2856254109        3.1966352718        1.1833118579
 H         -4.3055129041        3.9212380612        2.0001891747
 H         -3.5073992110        2.4673432442        1.4206534650
 C         -3.9230090730        3.9126620228       -0.1252154763
 H         -4.8208783226        4.0665605836       -0.7249971812
 H         -3.5201922771        4.8988575510        0.1148728038
 C         -2.8674907177        3.1963020593       -0.9700885446
 H         -1.9974750312        2.9589970815       -0.3514151771
 H         -2.5312389885        3.8850256258       -1.7501288560
 C         -3.3296678036        1.9095828051       -1.6654931336
 H         -4.2481096970        2.1025206789       -2.2240463950
 H         -2.5491887383        1.6205210787       -2.3759070147
 H         -5.7762860807        1.9815294460        2.1198751057
 H         -6.4371252721        3.2362683648        1.0632162387
 H         -6.6923322592        0.8717839753        0.2139860085
 H         -5.8900535030        1.9726444629       -0.9227744938
 O         -4.7709610419       -0.5266747118        0.8150400698
 C         -3.7623681243       -1.4620315139        0.9680791391
 O         -4.0253865432       -2.3612059585        1.7909747896
 O         -1.3642860519       -0.0514064290       -1.3637005774
 C         -1.5258561758       -2.3839154747        0.4568579366
 C         -0.2069357322       -1.7146417080        0.7496202797
 C          0.0263271610       -1.1933537627        2.0184336718
 C          1.2054510812       -0.5299199004        2.3018305508
 C          2.1692587816       -0.3614220296        1.3229199375
 C          1.9350588043       -0.8580972360        0.0480482068
 C          0.7621603650       -1.5498291687       -0.2261424809
 H          0.5835783065       -1.9222645435       -1.2227319235
 N          2.8983532590       -0.6800525212       -0.9578492235
 S          3.6689600846        0.8027316951       -1.1004448589
 O          2.8521930857        1.8962275190       -0.6286868070
 O          4.1014135243        0.8686886908       -2.4798427867
 C          5.1048622689        0.6208388443       -0.0601093656
 C          5.9204417012       -0.4755398851       -0.2614953134
 C          7.0465105684       -0.6272797605        0.5314376018
 C          7.3389378356        0.3159074228        1.5054113351
 C          6.5128646961        1.4132696044        1.6928927236
 C          5.3843122039        1.5701954475        0.9031070134
 H          4.7108062619        2.4050654403        1.0165232850
 H          6.7417637865        2.1462109564        2.4498502206
 H          8.2158495378        0.1952970396        2.1216903388
 H          7.6915173016       -1.4791914600        0.3883214963
 H          5.6598567350       -1.1835753358       -1.0302251548
 H          2.6001489148       -1.0153067496       -1.8626120908
 H          3.0832952577        0.1698978143        1.5319056559
 H          1.3753196574       -0.1347790579        3.2919885023
 H         -0.7354104829       -1.3064093890        2.7780383521
 H         -1.8509488537       -2.9052445098        1.3711388873
 C         -1.4246656322       -3.4444727566       -0.6297172687
 C         -2.6663559667       -4.0126586805       -1.2481426499
 C         -1.7312847328       -3.1817908205       -2.0719975233
 H         -1.1286642597       -3.6797132733       -2.8181557549
 H         -2.0365217025       -2.1868603705       -2.3544212674
 H         -2.7130184294       -5.0753147049       -1.4321065359
 H         -3.6098750193       -3.5776772374       -0.9513715677
 H         -0.6221855561       -4.1473089638       -0.4261023315
