  62
        -98.93894464
 C         -1.0198319397       -1.1232361347       -0.2780651816
 C         -2.1338986618       -1.2189917587        0.5954474205
 C         -3.0031622768       -0.0373445086        0.6945186671
 C         -2.7011314290        1.0604374752       -0.0186572373
 C         -3.4224365492        2.3841705868       -0.0361460344
 C         -4.9556329092        2.3504612879       -0.1393785889
 C         -5.5371405235        1.1474266922       -0.8960999590
 H         -6.2519470275        1.5083676679       -1.6381958015
 H         -4.7461775294        0.6233607031       -1.4353188309
 C         -6.2710877803        0.1638068749        0.0192384291
 H         -6.9580004847       -0.4329255425       -0.5859643573
 H         -6.8742197377        0.7321216712        0.7307918121
 C         -5.3808797489       -0.8128829963        0.7871708085
 H         -4.9545000407       -1.5462653108        0.0973721196
 H         -6.0129799651       -1.3636571220        1.4879857377
 C         -4.2178660274       -0.1770825014        1.5659285850
 H         -4.5112350131        0.7743114123        2.0028207712
 H         -3.9386955910       -0.8619635861        2.3709018134
 H         -5.3877605418        2.3778400047        0.8601441942
 H         -5.2598054588        3.2723142986       -0.6377780629
 H         -3.1412878845        2.9363960046        0.8643500093
 H         -3.0088025367        2.9212505658       -0.8921630496
 O         -1.6199537243        1.1138608440       -0.8429322004
 C         -0.7585504554        0.0387997645       -1.0030650064
 O          0.1631646882        0.2605990245       -1.8118279237
 O         -2.3911999969       -2.2528136490        1.2678944492
 C         -0.1155257702       -2.3418855174       -0.3687697723
 C          1.0931308565       -2.1409105698        0.5130792561
 C          1.1962183103       -2.8222330325        1.7213056844
 C          2.2823424460       -2.6210883738        2.5536698919
 C          3.2787815624       -1.7292203725        2.2021598718
 C          3.1816349419       -1.0379109541        0.9982936776
 C          2.0981946084       -1.2511323696        0.1579372752
 H          2.0345023932       -0.7043586307       -0.7691012920
 N          4.1769208666       -0.1255473322        0.6306114064
 S          3.9147170603        1.1210304898       -0.4399083149
 O          3.8553394793        0.6185585578       -1.7889569958
 O          5.0090500849        2.0345627338       -0.1712986099
 C          2.3913018010        1.9330181786        0.0127388993
 C          1.7315624758        2.6401281180       -0.9709326478
 C          0.5987817114        3.3631673973       -0.6359883814
 C          0.1411268363        3.3600086596        0.6712821956
 C          0.8080463199        2.6368395343        1.6468692366
 C          1.9498406956        1.9225852140        1.3202195838
 H          2.4812768885        1.3580480048        2.0692391388
 H          0.4433311403        2.6253430671        2.6618466623
 H         -0.7429969629        3.9214877378        0.9293094038
 H          0.0723841462        3.9143285233       -1.3986209088
 H          2.1067103568        2.5979615073       -1.9806477407
 H          4.8530465268        0.1066106900        1.3420921259
 H          4.1259499431       -1.5648790820        2.8502376425
 H          2.3513693677       -3.1582963527        3.4872276704
 H          0.4074123877       -3.5013829168        2.0096665698
 H         -0.7045299486       -3.1661429864        0.0565862786
 C          0.2718448489       -2.7155788780       -1.7844591789
 C          0.7081614897       -4.1211166110       -2.0666274949
 C         -0.6171342260       -3.6324379861       -2.5676275002
 H         -0.7375842550       -3.4530678306       -3.6255183558
 H         -1.5109154867       -3.9975732496       -2.0825950024
 H          1.5025548817       -4.2788746183       -2.7799610649
 H          0.7112941815       -4.8190664876       -1.2429488467
 H          0.7624744036       -1.9189281828       -2.3284393124
