  62
        -98.94054615
 C         -1.7593706393       -0.7859220904        0.1949112899
 C         -3.0668752192       -1.0318455507        0.6719452299
 C         -4.0188870494        0.0896026592        0.5930476304
 C         -3.6117811996        1.2668350394        0.0820697807
 C         -4.3420002898        2.5829742894       -0.0861809888
 C         -5.8639868898        2.6514215192        0.0116616514
 C         -6.6120723798        1.9252483595       -1.1055476188
 H         -7.6806465498        1.9672518493       -0.8833307386
 H         -6.4461160899        2.4627208298       -2.0426153886
 C         -6.2095795996        0.4700278896       -1.3319585393
 H         -5.1708962596        0.4234991898       -1.6658614194
 H         -6.8253549996        0.0756927698       -2.1449728994
 C         -6.3852005394       -0.4526099008       -0.1272491396
 H         -7.4098399794       -0.3833424411        0.2429903206
 H         -6.2231076993       -1.4772818207       -0.4725103799
 C         -5.4204568193       -0.2024912611        1.0453930504
 H         -5.7859079093        0.5867793786        1.6979839007
 H         -5.3663807191       -1.1199756313        1.6386669101
 H         -6.1310564299        3.7101022792       -0.0477869382
 H         -6.1965510996        2.2977480688        0.9830781213
 H         -3.9176523598        3.2573496392        0.6658639414
 H         -4.0290865399        2.9721750698       -1.0601975387
 O         -2.3313732096        1.4599780698       -0.3521178593
 C         -1.3816053995        0.4526139799       -0.3175331297
 O         -0.2657735196        0.7840747501       -0.7594522397
 H          1.9358312208       -1.9497193397       -0.5142298608
 C          1.7660808308       -1.5718915200        0.4794904993
 C          0.4843373009       -1.4797898503        0.9974441495
 C          0.3217989609       -0.9835967508        2.2894736896
 C          1.4110991009       -0.5776813309        3.0344810197
 C          2.6882664709       -0.6499824106        2.5043775595
 C          2.8626479608       -1.1494117201        1.2205839693
 N          4.1494937808       -1.2607807698        0.6593997792
 S          4.4898804606       -0.4929707992       -0.7897356006
 O          3.6180277705       -0.9835266090       -1.8240774107
 O          5.9063409806       -0.7085773290       -0.9925231508
 C          4.1986835704        1.2362980106       -0.4616921000
 C          5.2861914103        2.0395819107       -0.1742091798
 C          5.0746535802        3.3704772205        0.1447530606
 C          3.7819670801        3.8719600703        0.1812621509
 C          2.7026520002        3.0510306303       -0.1052974392
 C          2.9053577803        1.7180318004       -0.4305634397
 H          2.0709992104        1.0729030204       -0.6577518998
 H          1.6927974701        3.4291034202       -0.0800035790
 H          3.6137445700        4.9074211002        0.4326026413
 H          5.9139623601        4.0103132906        0.3652251308
 H          6.2724446904        1.6062959908       -0.2183063501
 H          4.8947466208       -1.0696090399        1.3150645992
 H          3.5413878009       -0.3264660406        3.0813314096
 H          1.2666788010       -0.1950725512        4.0335477398
 H         -0.6770051691       -0.9196390910        2.6997130998
 C         -0.7378567092       -1.9074743802        0.2249271694
 H         -1.2214580190       -2.7298916705        0.7730514192
 C         -0.4347035892       -2.3765894297       -1.1825262308
 C          0.0022352509       -3.7885541296       -1.4289314313
 C         -1.3678988692       -3.3447113596       -1.8429047010
 H         -1.5770849293       -3.2237772493       -2.8953195909
 H         -2.2138990691       -3.6888091299       -1.2658448510
 H          0.0867031111       -4.4418537899       -0.5736363815
 H          0.7393527609       -3.9706061293       -2.1967178314
 H         -0.0050925294       -1.5970414895       -1.8031993405
 O         -3.4241441090       -2.1394115109        1.1561999096
