  62
        -98.94353878
 C          1.0019511948        1.2051004464       -0.6277802543
 C          1.9876262478        1.4512804277        0.3608869721
 C          2.8452962740        0.3198903354        0.7257200871
 C          2.6294285874       -0.8833263277        0.1654092071
 C          3.3825562934       -2.1508561944        0.4679682052
 C          4.6986905404       -2.2994504353       -0.3076452915
 C          5.8327319312       -1.3838960144        0.1546517428
 H          5.9629388074       -1.4855288214        1.2325452247
 H          6.7482128438       -1.7429878848       -0.3196878963
 C          5.6377831837        0.0956165336       -0.2049936382
 H          4.8737529080        0.1841775732       -0.9805583037
 H          6.5655181699        0.4947282992       -0.6209578828
 C          5.2489986485        0.9888532701        0.9731495357
 H          5.1016302608        2.0052432354        0.5992778850
 H          6.0634318558        1.0124197500        1.7006275843
 C          3.9638238082        0.5603126524        1.6939117529
 H          4.1462173191       -0.3324153581        2.2926953471
 H          3.6556687360        1.3692823924        2.3611624515
 H          4.4999013758       -2.1264416697       -1.3676638218
 H          5.0277432126       -3.3349995640       -0.1945829187
 H          2.7242167433       -2.9773667922        0.1910602805
 H          3.5781284771       -2.2110563607        1.5393432160
 O          1.6568782377       -1.0916643213       -0.7571670121
 C          0.8233265369       -0.0617941150       -1.1860919321
 O          0.0010454998       -0.4201824945       -2.0468978947
 O          2.1445723772        2.5755130710        0.9117651443
 C          0.0868968367        2.3660421057       -0.9759087980
 C         -1.0861141654        2.3900735713       -0.0277864935
 C         -1.5226457658        3.5726040653        0.5577657183
 C         -2.5830210183        3.5655741958        1.4472678822
 C         -3.2080074989        2.3799105966        1.7903757861
 C         -2.7745095466        1.1917982584        1.2134931743
 C         -1.7393401066        1.2088364941        0.2923596593
 H         -1.4205508608        0.2827624281       -0.1585537437
 N         -3.3653350243       -0.0395055453        1.5337796968
 S         -2.3831157849       -1.3931594192        1.6630712763
 O         -3.1368242855       -2.2979326710        2.5092360436
 O         -1.0618213759       -1.0501556722        2.1393668088
 C         -2.3063361322       -2.0866501497        0.0276347882
 C         -1.1828850097       -2.8069932822       -0.3219184321
 C         -1.1238344845       -3.3923873013       -1.5754128251
 C         -2.1864922880       -3.2488455577       -2.4521249709
 C         -3.3102094691       -2.5258146524       -2.0841231803
 C         -3.3770198086       -1.9401369173       -0.8307040109
 H         -4.2309518593       -1.3634224116       -0.5157010674
 H         -4.1315434084       -2.4103470942       -2.7731392045
 H         -2.1331709101       -3.6969070575       -3.4318447680
 H         -0.2435820710       -3.9431447347       -1.8659901496
 H         -0.3681891152       -2.8736232070        0.3828505197
 H         -4.0567440251       -0.0082182265        2.2691985755
 H         -4.0172283296        2.3698404685        2.5044906404
 H         -2.9141644128        4.4903790213        1.8947194462
 H         -1.0129119819        4.4969157614        0.3287839887
 H          0.6838023836        3.2717021159       -0.7807097886
 C         -0.3355350284        2.4014376385       -2.4370710068
 C         -1.7063177341        2.0236254752       -2.9028629029
 C         -1.2815962773        3.4594703050       -2.9234938557
 H         -1.0842401073        3.9287486900       -3.8753253051
 H         -1.7148206010        4.1180366789       -2.1861764710
 H         -1.7857400731        1.4858386895       -3.8346377216
 H         -2.4247228469        1.7120578006       -2.1610096746
 H          0.4842092071        2.1396769456       -3.0980756795
