  62
        -98.94477751
 C          2.0161669737        0.9492234436       -0.4625573209
 C          3.0728482104        1.2467961074        0.4345721540
 C          4.3610813628        0.6092797210        0.1448857163
 C          4.4802321509       -0.1972135765       -0.9253886941
 C          5.7319455411       -0.9086953715       -1.3621415487
 C          5.9762335480       -2.2403841713       -0.6390757389
 C          6.4200511450       -2.1177820023        0.8192363219
 H          6.7628434740       -3.1057884931        1.1330515974
 H          7.2737533897       -1.4422458577        0.8824978688
 C          5.3180668097       -1.6502452177        1.7803262017
 H          5.3232503587       -2.2793460829        2.6733469352
 H          4.3420163319       -1.7782900888        1.3061317825
 C          5.4565055347       -0.2009221415        2.2465878751
 H          4.6056430477        0.0337079461        2.8910431750
 H          6.3676602590       -0.0922094191        2.8389849398
 C          5.4875383806        0.8283817313        1.1091763857
 H          5.3647890457        1.8233604884        1.5438451263
 H          6.4455331956        0.7883971759        0.5914087980
 H          6.7557402985       -2.7718608378       -1.1899572410
 H          5.0642224648       -2.8396110980       -0.6933246182
 H          5.6176039544       -1.1126521028       -2.4289869509
 H          6.5932696699       -0.2545789588       -1.2238220698
 O          3.4454221450       -0.4498690894       -1.7690698793
 C          2.1862690799        0.0930921768       -1.5504895506
 O          1.3345762262       -0.2523705411       -2.3918972722
 H         -1.2547711651        0.2163979062       -1.6403778312
 C         -1.1947113383       -0.1251948508       -0.6193320091
 C         -0.2810163330        0.4516504039        0.2487924965
 C         -0.2083618664       -0.0265134834        1.5543211621
 C         -1.0268193977       -1.0568144736        1.9777308668
 C         -1.9355217842       -1.6331648783        1.1071573365
 C         -2.0099157940       -1.1671589740       -0.1982165244
 N         -2.9479217173       -1.7398959828       -1.0796473504
 S         -4.5404332532       -1.7151724054       -0.5588136928
 O         -4.7661294056       -2.8086820539        0.3529421780
 O         -5.3442498364       -1.7179187894       -1.7607602148
 C         -4.6934686659       -0.1613758898        0.3050285268
 C         -4.8374574674       -0.1452226096        1.6770556792
 C         -4.8762756088        1.0756503120        2.3316245241
 C         -4.7647849584        2.2518623790        1.6070239846
 C         -4.6233419607        2.2190483639        0.2280499025
 C         -4.5842577612        1.0017423456       -0.4313319715
 H         -4.4801958857        0.9393114625       -1.5026786388
 H         -4.5370958274        3.1356515037       -0.3331900383
 H         -4.7881101126        3.2010314917        2.1188761900
 H         -4.9872887071        1.1050619449        3.4035446843
 H         -4.9172960122       -1.0828914876        2.2020520402
 H         -2.8726779337       -1.3908489918       -2.0241552657
 H         -2.5848520351       -2.4368110683        1.4151919383
 H         -0.9587330808       -1.4153137591        2.9935107290
 H          0.5068821958        0.4188345446        2.2316816602
 C          0.6511696448        1.5557135486       -0.1828223575
 H          0.8047761459        2.2240060552        0.6752443752
 C          0.1305272010        2.3696249554       -1.3488445977
 C         -1.0616802450        3.2552452330       -1.1445699730
 C          0.2964597299        3.8582469997       -1.3374556900
 H          0.5124502974        4.3584746337       -2.2697076061
 H          0.7872478343        4.2996281463       -0.4826556715
 H         -1.7802618214        3.3442494186       -1.9449687141
 H         -1.4951331542        3.2814888609       -0.1563242947
 H          0.2336919076        1.8676239136       -2.3033386695
 O          2.9444207739        2.0113793096        1.4269532408
