  62
        -98.94056629
 C         -1.3173468759       -1.2300406085        0.0775877262
 C         -2.2676082442       -0.8716846996        1.0585070582
 C         -2.9362154037        0.4286808204        0.8800540884
 C         -2.6028943647        1.2054966863       -0.1679526423
 C         -3.0725831140        2.5928462989       -0.5529659980
 C         -4.3868820977        3.1529699406       -0.0124474034
 C         -5.6403034506        2.3936410957       -0.4425872684
 H         -5.7717028311        2.5141133930       -1.5207813254
 H         -6.4994497123        2.8545932319        0.0501327992
 C         -5.6404764485        0.8969852755       -0.1397515838
 H         -4.8815149288        0.3989146400       -0.7465091305
 H         -6.6099615724        0.4947455376       -0.4461495501
 C         -5.4257396159        0.5245725084        1.3267967855
 H         -5.6353133822       -0.5438358541        1.4260391378
 H         -6.1400869138        1.0635795942        1.9520217491
 C         -4.0070385552        0.7684444154        1.8754845094
 H         -3.8566189533        0.1030251374        2.7307429863
 H         -3.8886417403        1.7890616391        2.2328926263
 H         -4.4700718438        4.1725928508       -0.3989691625
 H         -4.3495704137        3.2302593878        1.0703456110
 H         -3.1052957863        2.5991074761       -1.6465275269
 H         -2.2681131239        3.2765153713       -0.2591627733
 O         -1.6596441589        0.8255393770       -1.0776828929
 C         -1.0052308004       -0.3929130063       -0.9934215524
 O         -0.1901166789       -0.6052353367       -1.9072962505
 O         -2.5367792317       -1.5974995101        2.0549660615
 C         -0.5763858616       -2.5485184688        0.2011143536
 C          0.9103577983       -2.2928244540        0.2248788430
 C          1.8266308808       -3.0196289339       -0.5230347685
 C          3.1742937681       -2.7033196476       -0.4836778437
 C          3.6376190502       -1.6617469105        0.2983403701
 C          2.7301352850       -0.9364900699        1.0598308931
 C          1.3841183199       -1.2607032085        1.0260412403
 H          0.6809362113       -0.6888903151        1.6197584373
 N          3.1866118809        0.1405200275        1.8505105151
 S          3.9395786403        1.3877253207        1.0185680601
 O          5.2522050299        0.9520388334        0.6143056215
 O          3.8936429178        2.5229287376        1.9132183519
 C          2.9217987693        1.6832674224       -0.4139127787
 C          3.2359192456        1.0741703608       -1.6114993752
 C          2.4029885356        1.2713437500       -2.7002116240
 C          1.2780840899        2.0697788265       -2.5744103950
 C          0.9785489001        2.6774279841       -1.3656876059
 C          1.8015115390        2.4770014427       -0.2703373016
 H          1.6017959581        2.9330325564        0.6870504981
 H          0.0990097667        3.2945608977       -1.2733834425
 H          0.6244055061        2.2121637787       -3.4199607772
 H          2.6257341106        0.7925692452       -3.6397810014
 H          4.1221021118        0.4639293613       -1.6709007690
 H          2.4632306218        0.5264511986        2.4412257596
 H          4.6802865995       -1.3891536773        0.3251867751
 H          3.8733798575       -3.2732377466       -1.0765348832
 H          1.4854967373       -3.8286814791       -1.1475782479
 H         -0.8737442583       -2.9667417224        1.1744164128
 C         -1.0091718431       -3.5028191526       -0.8921521043
 C         -0.9822292704       -4.9834208000       -0.6608269149
 C         -2.2920519101       -4.2586249323       -0.7252691516
 H         -2.9224172059       -4.4035785322       -1.5897840021
 H         -2.8404359790       -4.1063954472        0.1930130441
 H         -0.7153722531       -5.6295759586       -1.4835008542
 H         -0.6444819306       -5.3337472110        0.3028095329
 H         -0.7714570073       -3.1326039073       -1.8831468018
