  62
        -98.93951847
 C          1.6163429332        1.4754677158       -0.1464087627
 C          1.3333018849        0.1134703972       -0.4230990229
 C          2.5027460813       -0.7470677167       -0.6742238003
 C          3.7408839367       -0.2307266311       -0.5905542067
 C          5.0119017501       -1.0110565662       -0.7563371471
 C          5.5018448606       -1.5663349835        0.5884344532
 C          4.4205130422       -2.2897564945        1.3916795418
 H          4.8890140252       -2.6636350636        2.3047557696
 H          3.6569011251       -1.5697759254        1.6958042981
 C          3.7489001289       -3.4534790014        0.6492737134
 H          4.3685408031       -3.7620988844       -0.1936450092
 H          3.6756645107       -4.3064476428        1.3273374703
 C          2.3323837792       -3.1565708019        0.1532864323
 H          1.8782212457       -4.1003901916       -0.1616102031
 H          1.7264932488       -2.7652002775        0.9753521526
 C          2.2313315316       -2.1824907086       -1.0267994967
 H          2.8904932643       -2.5123184863       -1.8326771742
 H          1.1993209027       -2.2115809006       -1.3887966181
 H          6.3323547405       -2.2485748054        0.3981331252
 H          5.8759064594       -0.7352964267        1.1908810602
 H          4.8429955094       -1.8261199303       -1.4573812063
 H          5.7746404914       -0.3450520660       -1.1631980719
 O          3.9754705851        1.0715464868       -0.2883724086
 C          2.9292659487        1.9480182181       -0.0526670420
 O          3.2935088010        3.1074120120        0.2288483293
 O          0.1776240042       -0.3760626629       -0.4757817737
 C          0.5233845483        2.4924503680        0.1425706108
 C         -0.3842630565        1.9721302717        1.2286777458
 C         -0.0021622637        2.1121158002        2.5590581599
 C         -0.8052602038        1.6369124986        3.5790315473
 C         -1.9951220044        0.9944431235        3.2863005287
 C         -2.3768273895        0.8334058899        1.9606305747
 C         -1.5822377880        1.3355405831        0.9398059053
 H         -1.8856794400        1.2059443895       -0.0849703057
 N         -3.5800295956        0.1733811312        1.6228912698
 S         -3.4121122642       -1.3231701633        0.8637783134
 O         -4.7245823612       -1.9305831485        0.9886377587
 O         -2.3290379250       -2.0873829378        1.4407622245
 C         -3.1272292206       -0.9652848125       -0.8520595986
 C         -3.9134379919       -0.0066324622       -1.4604231925
 C         -3.7369033598        0.2401951613       -2.8116789106
 C         -2.7876699692       -0.4759160628       -3.5261732111
 C         -2.0154159626       -1.4407786068       -2.9000142420
 C         -2.1859534197       -1.6928002261       -1.5477245797
 H         -1.5964408469       -2.4212522500       -1.0162839831
 H         -1.2758086793       -1.9937415456       -3.4575163294
 H         -2.6470154955       -0.2792680997       -4.5776541410
 H         -4.3363982674        0.9894112014       -3.3039878230
 H         -4.6371928468        0.5295181133       -0.8688598117
 H         -4.1989010384        0.0505580374        2.4142668414
 H         -2.6218638592        0.6106469162        4.0781303237
 H         -0.5004376442        1.7604809539        4.6075099931
 H          0.9365375044        2.5998673328        2.7852662248
 H          1.0576908927        3.3683614601        0.5437603038
 C         -0.2444082569        2.9794825238       -1.0777817007
 C          0.4760324053        3.2651527667       -2.3613435757
 C         -0.5099738596        2.1399421822       -2.2890392636
 H         -1.4612274309        2.2600329423       -2.7863369686
 H         -0.1436584430        1.1265678615       -2.2988514727
 H          0.2115126997        4.1523300033       -2.9165067095
 H          1.5280994224        3.0213651429       -2.4009287115
 H         -1.0255380455        3.6797425928       -0.7970685884
