  62
        -98.93830177
 C         -0.8940862756       -1.5188860142       -0.5306186629
 C         -2.1536614455       -1.7822972363        0.0661819108
 C         -3.2088095195       -0.7829337212       -0.1543017517
 C         -2.9274694029        0.3111505049       -0.8849761952
 C         -3.8679193846        1.4546335810       -1.1436545547
 C         -3.9775042760        2.3550881785        0.1028431935
 C         -5.3585338106        2.3634384087        0.7589564275
 H         -5.2569857250        2.8545424676        1.7290588301
 H         -6.0363220376        2.9686915111        0.1532060071
 C         -6.0100037125        0.9925493893        0.9607768601
 H         -6.4504869145        0.6532645902        0.0219865963
 H         -6.8378050836        1.1324885838        1.6592902029
 C         -5.0911643689       -0.1115650386        1.4991158238
 H         -4.2498086139        0.3174904370        2.0432114434
 H         -5.6607158902       -0.7088295719        2.2141294153
 C         -4.5633877952       -1.0822385825        0.4268163377
 H         -4.4601673081       -2.0746357245        0.8756242208
 H         -5.2950491467       -1.1642711620       -0.3820960882
 H         -3.7319631879        3.3825206450       -0.1693402957
 H         -3.2295534778        2.0274425898        0.8270698389
 H         -3.4658743945        2.0174758686       -1.9860559606
 H         -4.8459076136        1.0664829022       -1.4209283291
 O         -1.7080700281        0.5319171975       -1.4381908136
 C         -0.6658299719       -0.3733997271       -1.2932101530
 O          0.3719379671       -0.0379627691       -1.8938690099
 H          2.2422166837       -0.7160080358       -0.5428489512
 C          2.1285729099       -1.0826132964        0.4641841551
 C          1.1504946427       -2.0219307739        0.7615054707
 C          1.0173525310       -2.4582846752        2.0762450633
 C          1.8487946040       -1.9730010723        3.0687435379
 C          2.8204411314       -1.0348526624        2.7714240178
 C          2.9550862018       -0.5845045700        1.4618340716
 N          3.9283986559        0.3699889952        1.1439090252
 S          3.7890923756        1.4055009379       -0.1523619890
 O          4.0552874602        0.7057156471       -1.3836118247
 O          4.7212043386        2.4712571504        0.1635717085
 C          2.1394808525        2.0854141871       -0.1452486712
 C          1.4428998343        2.2248448425        1.0378833921
 C          0.1940760928        2.8245076748        1.0116959439
 C         -0.3273964531        3.2868234041       -0.1858022352
 C          0.3871642451        3.1454249042       -1.3633871452
 C          1.6304306297        2.5355819935       -1.3453494324
 H          2.2072619107        2.3842577274       -2.2433069586
 H         -0.0240738747        3.4927043603       -2.2976002759
 H         -1.2990476129        3.7542625427       -0.2021765531
 H         -0.3679741635        2.9279846545        1.9266351546
 H          1.8623978853        1.8611080236        1.9619941106
 H          4.4060076166        0.7927856668        1.9253904129
 H          3.4708948779       -0.6514942356        3.5426396434
 H          1.7374225120       -2.3240444060        4.0832973373
 H          0.2446459436       -3.1749807286        2.3138607025
 C          0.2079265044       -2.5404128815       -0.2974273409
 H         -0.3039633308       -3.4211446341        0.1139718944
 C          0.9284575767       -2.9578359124       -1.5621994576
 C          1.6886759321       -4.2492100615       -1.5664497887
 C          0.4132281932       -4.1273691759       -2.3439130307
 H          0.4652863022       -4.0892205053       -3.4217083658
 H         -0.4636120912       -4.6337383675       -1.9670437540
 H          1.6760367912       -4.8396088676       -0.6626023940
 H          2.6209779145       -4.2945693788       -2.1083056024
 H          1.3406804875       -2.1309619655       -2.1257716909
 O         -2.3884086786       -2.8179926292        0.7453488091
