  62
        -98.94513057
 C         -2.4491632361       -1.1686991508       -0.0663816547
 C         -3.5611599443       -0.8806916342        0.7644698558
 C         -4.5224647868        0.0931830834        0.2377915826
 C         -4.3115057136        0.6534382011       -0.9671731533
 C         -5.2155467831        1.6409512810       -1.6541162671
 C         -5.0047907881        3.0963283524       -1.2146834828
 C         -5.5157106382        3.4332660448        0.1866841495
 H         -5.5044258634        4.5211438967        0.2782831419
 H         -6.5525678473        3.1092728772        0.2815620964
 C         -4.6797593837        2.8332598632        1.3258287017
 H         -3.7052882624        2.5248408372        0.9392644978
 H         -4.4943641500        3.5981634835        2.0832907462
 C         -5.3319953007        1.6446249971        2.0319395921
 H         -6.2425535635        1.9735463703        2.5374878322
 H         -4.6388222692        1.2756463055        2.7919956611
 C         -5.6847337904        0.4747202649        1.1042128166
 H         -6.5490869262        0.7281987184        0.4909362020
 H         -5.9347730232       -0.3901764214        1.7234179219
 H         -5.5294897324        3.7315941678       -1.9321044905
 H         -3.9395663620        3.3305888353       -1.2809910717
 H         -4.9981212797        1.5694777395       -2.7220369935
 H         -6.2560158548        1.3579856974       -1.4915412807
 O         -3.2285297115        0.3551976220       -1.7328166696
 C         -2.2652481450       -0.5464581722       -1.3009927340
 O         -1.3263949204       -0.7063419204       -2.1056603850
 O         -3.7445342165       -1.4193870883        1.8879188687
 C         -1.4203308155       -2.1682963938        0.4360841415
 C         -0.1301151153       -1.4341789363        0.7023924328
 C         -0.0097180318       -0.6785740657        1.8660687633
 C          1.1358588188        0.0516829751        2.1175549743
 C          2.1829725179        0.0522486512        1.2114843200
 C          2.0637458731       -0.6803629522        0.0390527101
 C          0.9194300289       -1.4308908796       -0.2017427102
 H          0.8376601133       -1.9873421409       -1.1217982728
 N          3.1145795486       -0.6859035148       -0.8923136147
 S          3.8933710236        0.7536121352       -1.2572307726
 O          3.0267046993        1.8978888232       -1.0940349778
 O          4.4546133337        0.5532091303       -2.5756532724
 C          5.2229494292        0.8163988163       -0.0721345343
 C          5.4070694461        1.9458745961        0.7009181936
 C          6.4555232440        1.9747730581        1.6075941607
 C          7.2978738516        0.8798603025        1.7236804578
 C          7.1015176533       -0.2459869135        0.9377758752
 C          6.0560606830       -0.2807023587        0.0291189150
 H          5.8713434812       -1.1344178149       -0.6011293359
 H          7.7584059752       -1.0957902770        1.0307840291
 H          8.1118542408        0.9041242719        2.4308856320
 H          6.6095953595        2.8496646219        2.2186275077
 H          4.7240524485        2.7719298567        0.5803045912
 H          2.9025118516       -1.2020759904       -1.7340257901
 H          3.0747901268        0.6283671068        1.3958808165
 H          1.2168675039        0.6287724619        3.0262189026
 H         -0.8343370495       -0.6645326647        2.5652981578
 H         -1.8132017922       -2.5274936720        1.3969785316
 C         -1.2770398772       -3.3478259034       -0.5022784097
 C         -0.5975860309       -4.5930882232       -0.0187896390
 C         -2.0785967411       -4.5872786744       -0.2462035785
 H         -2.4739082329       -5.1277293465       -1.0932674704
 H         -2.7295310858       -4.5912838143        0.6156330507
 H          0.0261930851       -5.1417400812       -0.7078091154
 H         -0.2410263390       -4.5998574020        0.9999481529
 H         -1.1347243746       -3.0584935718       -1.5367666882
