  62
        -98.93691690
 C          2.4713556807        0.8819828892        0.4467901298
 C          2.5275286005       -0.3168752508       -0.3001591102
 C          3.6912344205       -1.1863619209       -0.0474279603
 C          4.6056622206       -0.8084731609        0.8626672995
 C          5.8848153206       -1.5137405010        1.2194085594
 C          7.0574834406       -0.9580550710        0.3934715292
 C          7.2610311804       -1.6247367310       -0.9665779708
 H          8.0276090403       -1.0542073811       -1.4960797509
 H          7.6498643103       -2.6340877411       -0.8163809408
 C          6.0132258902       -1.7085883310       -1.8497800806
 H          6.3430001701       -1.8426661210       -2.8819421107
 H          5.4665236703       -0.7648338910       -1.8058264506
 C          5.0825505902       -2.8705278409       -1.4715755605
 H          5.6113289203       -3.5437241110       -0.7969592906
 H          4.8479490801       -3.4507110009       -2.3663984705
 C          3.7407022003       -2.4609157009       -0.8448771603
 H          2.9970622702       -2.3193854208       -1.6354380502
 H          3.3751983804       -3.2797254409       -0.2163434003
 H          7.9782320606       -1.0758521211        0.9684267691
 H          6.8924973706        0.1139250090        0.2575018692
 H          5.7835527706       -2.5867262510        1.0868101994
 H          6.0728619208       -1.3046266310        2.2745386994
 O          4.5034823808        0.3504943591        1.5709123195
 C          3.4462387408        1.2207331292        1.3839699197
 O          3.4815580709        2.2415077992        2.1010107697
 O          1.6549116404       -0.6451168808       -1.1461654901
 C          1.3199279307        1.8492681593        0.2398405299
 C          0.0069212907        1.1534939893        0.5047858101
 C         -0.1618106692        0.4822968593        1.7134214601
 C         -1.3469284892       -0.1645030306        2.0039338203
 C         -2.3926342393       -0.1584142106        1.0966233604
 C         -2.2406229894        0.5173555094       -0.1051330096
 C         -1.0490118294        1.1738137794       -0.3914168498
 H         -0.9488772195        1.6934392894       -1.3316379398
 N         -3.2909315895        0.5207293395       -1.0358662295
 S         -4.8504050895        0.8454686696       -0.5164942193
 O         -5.5409277596        1.3359850396       -1.6894206592
 O         -4.8547677093        1.7119696496        0.6392416607
 C         -5.5083137295       -0.7520462204       -0.0856684292
 C         -5.4409813797       -1.7617669804       -1.0255506192
 C         -5.9653119397       -3.0050410404       -0.7103398691
 C         -6.5483017095       -3.2156824304        0.5304760610
 C         -6.6111085394       -2.1907868803        1.4619587610
 C         -6.0869948193       -0.9450742504        1.1533426409
 H         -6.1088110992       -0.1206325004        1.8482576509
 H         -7.0649831392       -2.3563379003        2.4258962210
 H         -6.9559358295       -4.1844513003        0.7727844910
 H         -5.9174754198       -3.8048661104       -1.4317598891
 H         -4.9826470798       -1.5583787805       -1.9790015192
 H         -3.0802007896        1.0059882595       -1.8955017895
 H         -3.3180973893       -0.6658335305        1.3147724306
 H         -1.4586474491       -0.6830671006        2.9442275903
 H          0.6560033309        0.4736924493        2.4218018900
 H          1.4442250008        2.6364782493        0.9979217699
 C          1.4162798605        2.4792284392       -1.1341911901
 C          0.8387261406        3.8392255293       -1.3839887000
 C          2.3248698606        3.6542748292       -1.3279695002
 H          2.8891927205        3.7248787492       -2.2457616303
 H          2.8556266207        4.0184897292       -0.4602326703
 H          0.3849437105        4.0411989693       -2.3428807200
 H          0.3581226707        4.3384739693       -0.5559986300
 H          1.3710658004        1.7471150892       -1.9325946301
