  62
        -98.93810181
 C         -1.6213083903       -1.0478569854        0.1222033715
 C         -2.7068618935       -0.7835989594        0.9895359584
 C         -3.4916284952        0.4261675221        0.6995020502
 C         -3.1251012822        1.2135627423       -0.3282227614
 C         -3.8674576703        2.4316162978       -0.7996620463
 C         -5.1051522177        2.0075545185       -1.6161761662
 C         -6.4422679795        2.3779312825       -0.9741968714
 H         -6.6162887611        3.4477487206       -1.1078615554
 H         -7.2249353479        1.8464318630       -1.5197096689
 C         -6.5763189050        2.0655471135        0.5194352733
 H         -7.6387452769        2.1311849608        0.7636079451
 H         -6.0757164928        2.8397375896        1.1031233554
 C         -6.0520240411        0.6957275882        0.9693273439
 H         -6.7367524460        0.3011299986        1.7228592377
 H         -6.0547133471       -0.0095904198        0.1379219906
 C         -4.6512368455        0.7243624831        1.6090729744
 H         -4.4938484378        1.6891021933        2.1000507385
 H         -4.6051284773       -0.0478900129        2.3829481210
 H         -5.0629723305        2.4660966733       -2.6052437975
 H         -5.0608096085        0.9271047777       -1.7686631923
 H         -3.1831807162        3.0108929690       -1.4200889478
 H         -4.1611624215        3.0381983567        0.0543098595
 O         -2.0559289072        0.9434191212       -1.1210739735
 C         -1.2826763270       -0.1959712231       -0.9292690080
 O         -0.3440531787       -0.3182853010       -1.7350993654
 O         -3.0038333651       -1.5244840980        1.9665703684
 C         -0.7940655901       -2.2988393710        0.3449342233
 C          0.6669274226       -1.9817528428        0.5551553486
 C          1.6787961142       -2.8499462996        0.1609671878
 C          3.0073899560       -2.5347697045        0.3873956531
 C          3.3603263991       -1.3434668938        0.9937593218
 C          2.3577040928       -0.4630086033        1.3794741835
 C          1.0263477394       -0.7945178980        1.1783817580
 H          0.2527675671       -0.1052741395        1.4946354490
 N          2.7050779062        0.7728553679        1.9504148249
 S          3.9549226578        1.6299955931        1.2349650898
 O          5.2088876405        1.2134113121        1.8143751216
 O          3.6146120952        3.0235897738        1.4264685921
 C          3.9365179140        1.2066072423       -0.4995807589
 C          5.1129613680        0.8172850184       -1.1085003011
 C          5.0919179543        0.4742851564       -2.4505799636
 C          3.8980644156        0.5127682186       -3.1545456321
 C          2.7251269167        0.9074393300       -2.5298855437
 C          2.7441664748        1.2661259303       -1.1922569436
 H          1.8366639191        1.5683085478       -0.6938552689
 H          1.7849853815        0.9145221182       -3.0576454344
 H          3.8779083353        0.2305697510       -4.1953676287
 H          6.0028155264        0.1688730190       -2.9398176824
 H          6.0140081359        0.7826432538       -0.5177149439
 H          1.9155035826        1.3744170764        2.1337121126
 H          4.3899570808       -1.0788029887        1.1733339524
 H          3.7798038118       -3.2228444033        0.0806559545
 H          1.4251039674       -3.7770617667       -0.3260022706
 H         -1.1822590091       -2.7429228096        1.2745611529
 C         -1.0237009821       -3.2766271078       -0.7917236449
 C         -1.0521809004       -4.7534988742       -0.5382518578
 C         -2.3223405210       -4.0223488992       -0.8490434932
 H         -2.7884254347       -4.1760060484       -1.8107780117
 H         -3.0252544728       -3.8525628418       -0.0462255019
 H         -0.6467105438       -5.4134176902       -1.2904051106
 H         -0.9016656350       -5.0920435467        0.4757975179
 H         -0.6075739587       -2.9245996352       -1.7290172949
