  62
        -98.94097951
 C         -2.2041544232       -1.0444024347        0.6213650018
 C         -2.1717032607       -0.1018028114       -0.4366584321
 C         -3.0292897260        1.0826677123       -0.2644244559
 C         -3.7278360826        1.2383012308        0.8739342832
 C         -4.6840853182        2.3611441912        1.1506035564
 C         -6.1092783969        1.9968307265        0.7107659138
 C         -6.1939847610        1.4323182771       -0.7074093678
 H         -5.6793380127        0.4692980778       -0.7399247685
 H         -7.2481414932        1.2402188752       -0.9180795177
 C         -5.6148752679        2.3510417543       -1.7923557487
 H         -6.3073374420        2.3764737550       -2.6362535203
 H         -5.5318971675        3.3692603415       -1.4105594446
 C         -4.2587361124        1.9056286805       -2.3429962582
 H         -4.0454409648        2.4926843863       -3.2401937086
 H         -4.3122466031        0.8563885303       -2.6443606376
 C         -3.0660888953        2.0742152545       -1.3929836390
 H         -2.1511052223        1.9054607823       -1.9693414373
 H         -3.0423080944        3.0964236312       -1.0089446804
 H         -6.5035758603        1.2479874185        1.4016433968
 H         -6.7318806625        2.8900614114        0.7864945613
 H         -4.6829693456        2.5573133581        2.2242293658
 H         -4.3475615629        3.2546983382        0.6281756108
 O         -3.6719640347        0.3510848451        1.9003433340
 C         -2.9145387319       -0.8051300997        1.8000975446
 O         -2.9435927965       -1.5237313872        2.8194937819
 H          0.2780586141       -0.6080665592        1.6885498256
 C          0.7419820555       -1.0833703654        0.8314811848
 C          0.0149703208       -2.0211620557        0.1077104764
 C          0.6143996288       -2.6150226686       -0.9943216667
 C          1.9033358059       -2.2677665421       -1.3603604699
 C          2.6213788705       -1.3320804403       -0.6391708269
 C          2.0296597197       -0.7284855798        0.4629059775
 N          2.7528411294        0.2181517290        1.2113550469
 S          3.5032610053        1.4774848731        0.3907717685
 O          3.6259949379        2.5375909645        1.3688996257
 O          2.8136911525        1.8105143222       -0.8337044481
 C          5.1246165214        0.8360375578        0.0285129211
 C          5.8912678694        0.3723424821        1.0796654965
 C          7.1567464132       -0.1264469305        0.8155342015
 C          7.6327682935       -0.1500056805       -0.4870668587
 C          6.8525198242        0.3233926941       -1.5307490209
 C          5.5850719829        0.8227679733       -1.2734560070
 H          4.9397957483        1.1957859948       -2.0530277872
 H          7.2242377206        0.3050825342       -2.5426532333
 H          8.6178258432       -0.5394706061       -0.6900825191
 H          7.7664900128       -0.4951156811        1.6245661683
 H          5.4852246231        0.4121052850        2.0765929122
 H          2.2435713891        0.5755958319        2.0069458980
 H          3.6221220718       -1.0546591483       -0.9272422289
 H          2.3545932135       -2.7308506168       -2.2246469142
 H          0.0638069548       -3.3286101230       -1.5846006553
 C         -1.3885263362       -2.3257702691        0.5726518958
 H         -1.3258003019       -2.6597604104        1.6219013162
 C         -2.0520858015       -3.4560663351       -0.2001876999
 C         -3.5435303254       -3.5275624958       -0.3329094943
 C         -2.6971514177       -3.2442663554       -1.5355866582
 H         -2.5954789411       -4.0186409458       -2.2819453091
 H         -2.6892194773       -2.2448780368       -1.9403263067
 H         -4.0197963495       -4.4930948617       -0.2515620553
 H         -4.1229447714       -2.7192012840        0.0898206016
 H         -1.5403380708       -4.4016907257       -0.0506318188
 O         -1.4737010695       -0.2307278291       -1.4747691798
