  62
        -98.94007071
 C         -1.0251199617       -1.6097444364        0.1012621001
 C         -1.5420117075       -0.6226064906        0.9696149099
 C         -2.7784576829        0.0574978622        0.5460168135
 C         -3.3129431724       -0.2511319115       -0.6491013778
 C         -4.5534439728        0.3083477779       -1.2979494684
 C         -4.7094140821        1.8368088339       -1.2581392634
 C         -5.8389142045        2.3072005747       -0.3402506160
 H         -6.1655029280        3.2965702385       -0.6681847903
 H         -6.6863412628        1.6283831006       -0.4568577681
 C         -5.4718833830        2.4090241194        1.1390133419
 H         -6.3898534834        2.6188214978        1.6931430153
 H         -4.8016756411        3.2590530506        1.2854885105
 C         -4.8106225884        1.1660565855        1.7382578752
 H         -5.2869440832        0.2608260376        1.3640736993
 H         -4.9749130346        1.1905988741        2.8176543338
 C         -3.2947652515        1.0985075720        1.5017263146
 H         -2.9198103533        2.0758801429        1.1803527027
 H         -2.7865156761        0.8818477446        2.4469258686
 H         -4.9332400932        2.1766213722       -2.2708456145
 H         -3.7649792865        2.2973605939       -0.9686337503
 H         -5.4287056842       -0.1660780764       -0.8476231984
 H         -4.5102795184       -0.0335766108       -2.3344758231
 O         -2.7641931897       -1.1919069552       -1.4702153435
 C         -1.6083622384       -1.8770008097       -1.1357688466
 O         -1.2149819827       -2.6770084377       -2.0059206431
 O         -0.9889426912       -0.3163889185        2.0620432821
 C          0.2624333289       -2.3177727971        0.4770192065
 C          1.3781436154       -1.9074504167       -0.4544938440
 C          2.3681612347       -2.7763673778       -0.8963194210
 C          3.3785169046       -2.3199108440       -1.7256621029
 C          3.4419584194       -0.9925532163       -2.1097863538
 C          2.4588582324       -0.1143204787       -1.6681930558
 C          1.4390910615       -0.5801229979       -0.8552834972
 H          0.6664237743        0.1060388366       -0.5461191643
 N          2.4751997871        1.2423687618       -2.0245912059
 S          1.9674264814        2.3904307831       -0.9184017484
 O          0.5299565220        2.3865859129       -0.8068719972
 O          2.5557409006        3.6239680145       -1.3970886287
 C          2.7429534417        1.9151598505        0.6164725637
 C          4.1117702425        2.0887719458        0.7029244320
 C          4.7709760619        1.6895150753        1.8529759574
 C          4.0539491881        1.1185112726        2.8940261963
 C          2.6816393123        0.9563723127        2.7943426922
 C          2.0144679183        1.3573570009        1.6465025811
 H          0.9467500630        1.2323897773        1.5533693733
 H          2.1146076270        0.5138745685        3.5979372659
 H          4.5657404587        0.8007413919        3.7887060158
 H          5.8379106223        1.8207018264        1.9339132873
 H          4.6302248250        2.5479525830       -0.1231011118
 H          3.2943112171        1.5423610736       -2.5319902811
 H          4.2343021971       -0.6391660202       -2.7514464724
 H          4.1350156569       -3.0077614664       -2.0713856693
 H          2.3440669571       -3.8117743070       -0.5987198781
 H          0.5173495715       -1.9419619183        1.4802564134
 C          0.0597370876       -3.8160409031        0.5563954412
 C          0.8544076919       -4.6360679135        1.5273652856
 C         -0.6032944479       -4.3911303904        1.7712521242
 H         -1.2964033819       -5.2086410382        1.6417180646
 H         -0.8837960132       -3.7025444997        2.5550293710
 H          1.1623790496       -5.6279383857        1.2326978809
 H          1.5648400746       -4.1195133305        2.1548216702
 H         -0.1900166863       -4.2529777171       -0.4035559495
