  62
        -98.93443400
 C         -1.6527950908       -1.6639253196        0.2826478284
 C         -2.0198470201       -0.6282892598        1.1786505889
 C         -3.0415059395        0.3296525011        0.7225061695
 C         -3.5625137097        0.1967711720       -0.5112081405
 C         -4.6646026493        0.9636139330       -1.2106412601
 C         -5.0731581184        2.3543017530       -0.7308698793
 C         -3.9894264178        3.4212949524       -0.8681110989
 H         -4.3803158372        4.3563875724       -0.4607574185
 H         -3.7837822578        3.5816557928       -1.9296300789
 C         -2.6664260879        3.0967397613       -0.1784179792
 H         -2.0046160974        3.9590472109       -0.2981426589
 H         -2.1850464885        2.2563966612       -0.6840014897
 C         -2.7730988980        2.7900909406        1.3148038706
 H         -3.3412426975        3.5806998407        1.8081324111
 H         -1.7591929179        2.8082829198        1.7205819106
 C         -3.4041222688        1.4307574108        1.6772204101
 H         -4.4860673187        1.5090440014        1.7638625602
 H         -3.0201269889        1.1270409001        2.6553062599
 H         -5.4301653784        2.3126571327        0.2939203207
 H         -5.9201951483        2.6597195738       -1.3511335991
 H         -5.5470744497        0.3145386335       -1.1783637203
 H         -4.3635143294        1.0222454233       -2.2614580101
 O         -3.1509914104       -0.7903427179       -1.3563097210
 C         -2.1820307609       -1.7255653586       -1.0062175016
 O         -1.9049714115       -2.5136954084       -1.9283018720
 O         -1.5209988199       -0.5162215306        2.3294007089
 C         -0.6115388513       -2.6546267204        0.7748097078
 C          0.7854754990       -2.1395915812        0.5299194279
 C          1.7953511389       -2.3138279022        1.4693890978
 C          3.0670025492       -1.8162490729        1.2408885779
 C          3.3461479895       -1.0974857025        0.0925169882
 C          2.3340843296       -0.8892325115       -0.8358095116
 C          1.0760726193       -1.4355729108       -0.6289573417
 H          0.3028100393       -1.2889646900       -1.3710466816
 N          2.5748429600       -0.0500955411       -1.9402344612
 S          3.1183301310        1.4971377884       -1.5502370605
 O          2.4004042614        2.3941164593       -2.4301885900
 O          4.5555031110        1.5291334276       -1.6700542306
 C          2.6697718813        1.7597819979        0.1598328196
 C          3.6632643016        2.0635867468        1.0687149497
 C          3.3349521118        2.1794230064        2.4098128998
 C          2.0306549417        1.9557025270        2.8213237198
 C          1.0422368314        1.6529167280        1.8971748997
 C          1.3577631412        1.5735234785        0.5508575097
 H          0.5995434410        1.3491271793       -0.1837119704
 H          0.0360659613        1.4360420685        2.2209862197
 H          1.7771079818        2.0095881366        3.8681534598
 H          4.0995863320        2.4213274356        3.1301988598
 H          4.6711087116        2.1894038764        0.7077905497
 H          1.7828985100        0.0141851197       -2.5647128011
 H          4.3201357598       -0.6726421330       -0.0914798717
 H          3.8436457492       -1.9710385137        1.9733774077
 H          1.5744374187       -2.8269238225        2.3932103975
 H         -0.7513844613       -2.6983789409        1.8666917778
 C         -0.8170204622       -4.0604283501        0.2292378072
 C          0.0490369973       -4.6550391701       -0.8363747032
 C          0.1422334571       -5.1621997708        0.5694517066
 H         -0.2578971734       -6.1392564307        0.7938041961
 H          1.0259467373       -4.9049257316        1.1323439066
 H         -0.4272535831       -5.2662210194       -1.5874326934
 H          0.8617646776       -4.0577361804       -1.2202294430
 H         -1.8683449124       -4.3274701494        0.1934314071
