  62
        -98.94019166
 C         -1.2762905397       -1.3398967914       -0.1386814100
 C         -2.0808985299       -0.7295277518        0.8581532900
 C         -2.8800340104        0.4422398779        0.4587297001
 C         -2.8277228005        0.8677550981       -0.8171696799
 C         -3.4905298910        2.0388568979       -1.5129968198
 C         -4.5955258813        2.8319907774       -0.8210680397
 C         -5.9086195910        2.0694396168       -0.6423425098
 H         -6.5791925413        2.6787658965       -0.0327415698
 H         -6.3728924710        1.9464800267       -1.6242254798
 C         -5.7878599205        0.6825020368       -0.0155394399
 H         -5.1776351802        0.0421655671       -0.6557857000
 H         -6.7884707903        0.2429234564        0.0174612700
 C         -5.2212126805        0.6528484269        1.4021988101
 H         -5.8121868908        1.3056036266        2.0475822701
 H         -5.3234393401       -0.3691488032        1.7770124100
 C         -3.7408502107        1.0479302775        1.5297467201
 H         -3.6239042311        2.1285862075        1.5537840102
 H         -3.3678256405        0.6543650775        2.4795464201
 H         -4.8017892417        3.6979842673       -1.4558669196
 H         -4.2424858215        3.2184337974        0.1304894103
 H         -2.6794001713        2.7285297382       -1.7735335097
 H         -3.8717309308        1.6466285178       -2.4614870098
 O         -2.0392220803        0.2487997185       -1.7425293199
 C         -1.2444117098       -0.8450234212       -1.4404466800
 O         -0.5816436497       -1.2505418509       -2.4176422000
 H          1.3694597104       -1.5013481702       -1.4289220300
 C          1.7576159904       -1.5314058701       -0.4217769300
 C          0.9733450506       -2.0561673805        0.5956324400
 C          1.4832703506       -2.0667679105        1.8883317400
 C          2.7442622004       -1.5603096000        2.1542479200
 C          3.5119589702       -1.0136255896        1.1415856301
 C          3.0059637902       -0.9944687897       -0.1515611999
 N          3.7423205500       -0.3583020693       -1.1743486698
 S          4.0855963193        1.2535098008       -0.8537562597
 O          4.0841727591        1.9230430610       -2.1355627996
 O          5.3179254093        1.3327790313       -0.1093392397
 C          2.7378081090        1.8267701302        0.1703925303
 C          2.9956636288        2.2536621802        1.4570912904
 C          1.9367864587        2.6438519097        2.2610338504
 C          0.6421639287        2.5933822992        1.7691445004
 C          0.3993567089        2.1664158892        0.4729632103
 C          1.4539969991        1.7782451497       -0.3366953897
 H          1.2855676692        1.4379715998       -1.3471757197
 H         -0.6104167711        2.1174524489        0.0959378903
 H         -0.1864272414        2.8827637788        2.3958648604
 H          2.1222407685        2.9776225197        3.2691096104
 H          4.0167072488        2.2672948006        1.8017829504
 H          3.2976023700       -0.4400099694       -2.0785220299
 H          4.4830878600       -0.5852179592        1.3308033302
 H          3.1270546104       -1.5767433599        3.1629293100
 H          0.8740949307       -2.4540236808        2.6914992099
 C         -0.4311628492       -2.5255742211        0.3016530199
 H         -0.8769297991       -2.8632561713        1.2463519898
 C         -0.4426760987       -3.6829616110       -0.6759944502
 C         -0.0623365782       -5.0473553309       -0.1871562503
 C         -1.4877909383       -4.7475539514       -0.5394887803
 H         -1.9019671681       -5.1801805415       -1.4378679504
 H         -2.2017758284       -4.6477494718        0.2650562297
 H          0.5061205421       -5.6886946006       -0.8429586704
 H          0.1898067018       -5.1521581509        0.8571469597
 H         -0.1461635688       -3.4075774208       -1.6795843502
 O         -2.1274279598       -1.1463973319        2.0445778000
