  62
        -98.94080680
 C         -2.6562076477       -0.1362867405        0.3328126166
 C         -2.6734218150       -1.1451707929       -0.6641729265
 C         -2.1098618117       -2.4450175584       -0.2922532589
 C         -1.5947149327       -2.6141929487        0.9383206243
 C         -0.9440818776       -3.8655013862        1.4624696792
 C          0.5271378039       -4.0055472578        1.0470618404
 C          0.7556220683       -4.4169108824       -0.4084986166
 H          1.7980055574       -4.7314944308       -0.4902959823
 H          0.1336099664       -5.2815176496       -0.6442796989
 C          0.5004354803       -3.2985218294       -1.4284118930
 H          1.3086010205       -3.2903099434       -2.1642847859
 H          0.5211174000       -2.3312243828       -0.9212041648
 C         -0.8085766746       -3.4278173858       -2.2075769217
 H         -0.9103296834       -2.5483575231       -2.8485963407
 H         -0.7682083546       -4.3121546560       -2.8486698432
 C         -2.0655477449       -3.5218354905       -1.3347498030
 H         -2.9380407738       -3.3900500220       -1.9800920048
 H         -2.1236142311       -4.5031697847       -0.8636795533
 H          0.9788581939       -4.7618271126        1.6938626542
 H          1.0318513317       -3.0543130019        1.2371827210
 H         -0.9932219197       -3.8088083443        2.5521352761
 H         -1.5051032001       -4.7409934416        1.1330907172
 O         -1.6278975812       -1.6383237032        1.8816290634
 C         -2.1290922751       -0.3708120371        1.6035750791
 O         -2.0679428196        0.4085611473        2.5735616449
 H         -0.5528442001        1.4167210669        0.7271446146
 C         -0.6968992478        1.8719252637       -0.2417090519
 C         -1.9629575937        1.9170155159       -0.8083685140
 C         -2.1178659344        2.5307783245       -2.0453019246
 C         -1.0247319234        3.0642039027       -2.7064035619
 C          0.2439345990        2.9640058151       -2.1650979803
 C          0.4072585565        2.3573440653       -0.9240121663
 N          1.6745579194        2.2172462930       -0.3388566585
 S          1.9684836527        0.8113310386        0.5594577886
 O          1.2425629478       -0.3033409271       -0.0004639978
 O          1.7410261576        1.1064692012        1.9522042689
 C          3.7175612536        0.6002158466        0.2787452980
 C          4.6063288335        1.3986953572        0.9742404182
 C          5.9637717789        1.2547018867        0.7351592569
 C          6.4073814739        0.3204480343       -0.1894243581
 C          5.5037408044       -0.4751606259       -0.8774822501
 C          4.1443945917       -0.3350172963       -0.6445184952
 H          3.4036279492       -0.9347657148       -1.1490891225
 H          5.8508367543       -1.2035410910       -1.5924077911
 H          7.4644031404        0.2093597636       -0.3723893171
 H          6.6693216184        1.8692520666        1.2705209415
 H          4.2148438599        2.1019263772        1.6908665287
 H          2.4335407361        2.4343380406       -0.9699730468
 H          1.1019201019        3.3456331586       -2.6972726303
 H         -1.1581095673        3.5375544812       -3.6672612607
 H         -3.0971005467        2.5635000535       -2.4998411143
 C         -3.1182834556        1.2421418937       -0.1093879926
 H         -3.8968188160        1.0578380437       -0.8679376237
 C         -3.7409564484        2.0900027264        0.9864079928
 C         -3.0391628405        3.2489884502        1.6213597603
 C         -4.1820286084        3.4922303426        0.6845361079
 H         -5.1200998145        3.8373159766        1.0916080269
 H         -3.9486627975        3.8869372828       -0.2927175526
 H         -2.0398750272        3.4830300028        1.2877261083
 H         -3.1851304313        3.4007263308        2.6798261050
 H         -4.3816609879        1.5039923877        1.6369526712
 O         -3.1500060424       -0.9628397097       -1.8180420208
