  62
        -98.94667144
 C         -1.1729632662       -1.3658419660        0.2803575070
 C         -1.3638073669       -0.3232591814       -0.6587568566
 C         -2.3491391391        0.6998111047       -0.2840032454
 C         -2.9392458716        0.6595346442        0.9232903802
 C         -3.9500271232        1.6402496559        1.4523765995
 C         -5.3905825553        1.3393163013        1.0158407610
 C         -5.6992277170        1.6404089546       -0.4514791207
 H         -6.7840772073        1.5945676940       -0.5661090108
 H         -5.3911331652        2.6599987245       -0.6850158802
 C         -5.0570535773        0.6650464974       -1.4480706622
 H         -4.7465663909       -0.2411082539       -0.9227801730
 H         -5.7990199982        0.3640319964       -2.1912105761
 C         -3.8582138280        1.2315858300       -2.2094883346
 H         -4.1856277831        2.0579531844       -2.8443000249
 H         -3.4637877173        0.4453587526       -2.8582296586
 C         -2.7154941422        1.7264696932       -1.3125475977
 H         -1.8363878978        1.8984549749       -1.9377377425
 H         -2.9957741881        2.6640311672       -0.8342471982
 H         -5.6088167476        0.2898236355        1.2266083196
 H         -6.0536316026        1.9468083764        1.6361773504
 H         -3.9013300788        1.5820537200        2.5418480940
 H         -3.6852615122        2.6517759421        1.1433986912
 O         -2.6565782835       -0.3044850956        1.8380849519
 C         -1.8087092372       -1.3516457424        1.5270709316
 O         -1.6951894964       -2.2003688756        2.4338891014
 O         -0.7650356141       -0.2290996006       -1.7634404892
 C         -0.2785401947       -2.5709378855        0.0248792695
 C          1.1711536693       -2.2198116011        0.2516755331
 C          1.8808364412       -2.7633623460        1.3158694317
 C          3.2012108058       -2.4108446956        1.5390706969
 C          3.8378942003       -1.5035166542        0.7104866926
 C          3.1314972928       -0.9490864818       -0.3484187136
 C          1.8145293111       -1.3141847895       -0.5801534655
 H          1.2669909655       -0.8639754199       -1.3949424059
 N          3.7554771503        0.0253913565       -1.1649397592
 S          3.9685203052        1.5074970275       -0.4143326629
 O          4.4139275047        2.4163768479       -1.4453325362
 O          4.8557584050        1.3282918572        0.7064602294
 C          2.3507599588        1.9903083133        0.1658803555
 C          1.6151357459        2.8927310287       -0.5750283219
 C          0.3514564932        3.2499264030       -0.1350382608
 C         -0.1600765666        2.6853248950        1.0225833370
 C          0.5825537357        1.7649475374        1.7450449761
 C          1.8532602772        1.4152690224        1.3186447797
 H          2.4617993933        0.7153170635        1.8681150074
 H          0.1735180177        1.3131741161        2.6356632916
 H         -1.1429128655        2.9620557061        1.3687301863
 H         -0.2317155153        3.9624298903       -0.6957935020
 H          2.0508971734        3.3070951633       -1.4701095908
 H          3.2561806777        0.1760029729       -2.0318034437
 H          4.8557887441       -1.1949405981        0.8844178277
 H          3.7386828968       -2.8428975800        2.3696176807
 H          1.3840163553       -3.4540146245        1.9818760170
 H         -0.5638429599       -3.3153545744        0.7799290297
 C         -0.4916763878       -3.1770079539       -1.3489939894
 C         -0.0793824503       -4.5970258006       -1.5877688165
 C         -1.5333943122       -4.2379730958       -1.5282663452
 H         -2.1071405612       -4.2476793910       -2.4429054775
 H         -2.0977303115       -4.5379727615       -0.6569886414
 H          0.3482077242       -4.8557669209       -2.5442513701
 H          0.3418204271       -5.1422254357       -0.7566046518
 H         -0.3602883995       -2.4716425395       -2.1585831276
