  62
        -98.93615726
 C         -2.7644491461       -1.0357756555        0.3598370160
 C         -2.3678551143       -0.3196677082       -0.7978520785
 C         -2.7935342905        1.0884346505       -0.8667740543
 C         -3.5630661568        1.6073036894        0.1069018917
 C         -4.1180361845        3.0065422480        0.2467509249
 C         -3.3050621553        4.1970065127       -0.2678356702
 C         -1.8813378144        4.3134471761        0.2737886479
 H         -1.4411410979        5.2194639753       -0.1491846674
 H         -1.9185825004        4.4384336439        1.3588413049
 C         -0.9539811523        3.1360656073       -0.0340102424
 H         -1.2113058741        2.2850762773        0.6024084496
 H          0.0683994475        3.4235606098        0.2326222245
 C         -0.9366070385        2.6720784186       -1.4921796177
 H         -0.0791981904        2.0014943207       -1.6011944295
 H         -0.7698583851        3.5304816137       -2.1455726112
 C         -2.1951647830        1.9121282853       -1.9669818482
 H         -2.9390386061        2.5877749155       -2.3844637080
 H         -1.8927265842        1.2179502602       -2.7554065938
 H         -3.8484854934        5.0950773079        0.0379680517
 H         -3.2768806264        4.1973344227       -1.3537726272
 H         -4.3067982743        3.1371353848        1.3159978238
 H         -5.0930448418        3.0188389902       -0.2520540104
 O         -4.0074959459        0.8501259781        1.1502064719
 C         -3.5651351212       -0.4506211934        1.3404416000
 O         -3.9451837826       -0.9666865239        2.4108738456
 O         -1.6764815552       -0.8104649607       -1.7252716225
 C         -2.1857747228       -2.4068075114        0.6735511474
 C         -0.6993116365       -2.3545923157        0.4050581838
 C         -0.0159364563       -3.2534521277       -0.4010175594
 C          1.3371250985       -3.0855363850       -0.6447839524
 C          2.0333859632       -2.0215968420       -0.1021207250
 C          1.3587461829       -1.1171543828        0.7076473998
 C          0.0130279057       -1.3036687307        0.9717505431
 H         -0.5102591226       -0.5906193370        1.5999668224
 N          2.0492850410       -0.0143594071        1.2494362961
 S          2.7892794257        1.0254238702        0.1494453141
 O          2.7956115842        2.3195861560        0.7976379029
 O          2.1737559402        0.9588354620       -1.1537285261
 C          4.4557972522        0.4036676485        0.0703536366
 C          4.9629116995       -0.0572759540       -1.1284283788
 C          6.2587054838       -0.5491279528       -1.1627597095
 C          7.0195586895       -0.5708326905       -0.0039255294
 C          6.4963339786       -0.1011299312        1.1917424163
 C          5.2021602183        0.3921623014        1.2324068078
 H          4.7581002141        0.7707500933        2.1378872382
 H          7.0914486894       -0.1188423428        2.0904981066
 H          8.0266177493       -0.9558702664       -0.0329774355
 H          6.6673097178       -0.9137754161       -2.0914851816
 H          4.3316300218       -0.0246238118       -2.0023327740
 H          1.4856973450        0.5256489394        1.8911639397
 H          3.0810028146       -1.8746237750       -0.3094243552
 H          1.8534678104       -3.7874339372       -1.2818209292
 H         -0.5472895531       -4.0669158160       -0.8668884157
 H         -2.3299333620       -2.5317480442        1.7602204481
 C         -2.8906479303       -3.5780444290        0.0089790845
 C         -4.3269164179       -3.4737674278       -0.4071271666
 C         -3.2516342580       -3.5747570650       -1.4447396913
 H         -3.1603783200       -4.4991911568       -1.9962190378
 H         -2.9994948579       -2.6962405814       -2.0166742214
 H         -4.9704508735       -4.3253067966       -0.2440008628
 H         -4.8190769724       -2.5217800990       -0.2689172823
 H         -2.5844820783       -4.5288064392        0.4343793945
