  62
        -98.93681528
 C         -2.4076135707       -1.0469343806       -0.2332976590
 C         -2.5317412406        0.1603648493        0.4977463811
 C         -3.9033365506        0.5367603893        0.8724115613
 C         -4.9312690206       -0.2780893207        0.5773091213
 C         -6.3789263006       -0.0393788707        0.9104997715
 C         -7.1133907907        0.8461652693       -0.1054168684
 C         -6.7406429707        2.3286777793       -0.0645538883
 H         -7.4776220808        2.8608217194       -0.6692802382
 H         -6.8311011206        2.6967465392        0.9578390218
 C         -5.3389847308        2.6451972394       -0.6049072584
 H         -4.9765152508        1.8013499395       -1.1967962085
 H         -5.3926184508        3.5050685095       -1.2764546683
 C         -4.3040657107        2.9754771093        0.4709144216
 H         -3.3427914307        3.1487624894       -0.0202178285
 H         -4.5897967106        3.8967299193        0.9833500617
 C         -4.1084672405        1.8728581692        1.5200607114
 H         -3.2094142905        2.1025939292        2.0972035214
 H         -4.9619590505        1.8418465592        2.1968508615
 H         -6.9315248408        0.4521037794       -1.1080328684
 H         -8.1830275907        0.7566204793        0.0975553217
 H         -6.8597784706       -1.0198315108        0.9241487414
 H         -6.4587749205        0.4013074292        1.9045144715
 O         -4.7599994306       -1.4662967606       -0.0620122388
 C         -3.5075070807       -1.8680859806       -0.4954654589
 O         -3.5003360507       -2.9696661005       -1.0809495790
 O         -1.5641730706        0.8924925793        0.8289218911
 C         -1.0621873507       -1.5447056205       -0.7297561991
 C         -0.0149554106       -1.4145514106        0.3487699608
 C         -0.2125885705       -2.0858058207        1.5535657107
 C          0.7262850496       -2.0176424008        2.5635946006
 C          1.8970255196       -1.3011342207        2.3853274206
 C          2.1022301095       -0.6258607706        1.1891009206
 C          1.1468103394       -0.6791197706        0.1833685007
 H          1.3266845293       -0.1251486805       -0.7228685092
 N          3.2698958694        0.1248113894        0.9779296506
 S          3.9369320693        0.1321859895       -0.5723072895
 O          3.3368870192        1.1940288596       -1.3403099393
 O          3.8626964993       -1.1917202504       -1.1488927596
 C          5.6320595193        0.5444101695       -0.1986256596
 C          5.9744879893        1.8716367495       -0.0205883995
 C          7.2852906993        2.1876994495        0.2997244204
 C          8.2262773394        1.1778676995        0.4367106602
 C          7.8681968494       -0.1493115805        0.2534336402
 C          6.5588576993       -0.4725368905       -0.0660381998
 H          6.2366038793       -1.4888139004       -0.2268155798
 H          8.6025946994       -0.9317290405        0.3571827000
 H          9.2459003194        1.4269391695        0.6848656802
 H          7.5681133493        3.2184913995        0.4401080505
 H          5.2114601393        2.6221895295       -0.1461040894
 H          3.9700369595       -0.0215220307        1.6918844105
 H          2.6374426697       -1.2557480908        3.1696117505
 H          0.5531658797       -2.5374257609        3.4941196706
 H         -1.1219054905       -2.6572286507        1.6871243308
 H         -1.2081813507       -2.6222035805       -0.9184335792
 C         -0.6291790608       -0.9304577104       -2.0529295191
 C         -1.6360689409       -0.4807739703       -3.0678724590
 C         -0.7948662009        0.5284628396       -2.3487882090
 H         -0.0075822509        1.0310078097       -2.8925092090
 H         -1.2565187208        1.1412248396       -1.5908169489
 H         -1.4338218810       -0.6741363502       -4.1106037690
 H         -2.6808706809       -0.5586027704       -2.8033916789
 H          0.2672575191       -1.4045453903       -2.4440463693
