  62
        -98.93718320
 C          1.6264475919        1.4866658965       -0.0197663848
 C          2.9027589677        1.2232094776        0.5419782773
 C          3.6809677384        0.1052135595       -0.0246928003
 C          3.1418358639       -0.6114268003       -1.0275643926
 C          3.7095246645       -1.8252865023       -1.7121788499
 C          3.5687839267       -3.1005893731       -0.8622890973
 C          3.8583272270       -2.9202421358        0.6261423673
 H          3.2125506290       -2.1363355713        1.0265036974
 H          3.5892263358       -3.8507940019        1.1326311478
 C          5.3121525712       -2.6076586321        0.9731815673
 H          5.3819987338       -2.5483083919        2.0624255143
 H          5.9437734000       -3.4367280025        0.6453539271
 C          5.8785190911       -1.3132856125        0.3876482638
 H          6.0875849931       -1.4264750173       -0.6727515535
 H          6.8409247403       -1.1301375338        0.8749175413
 C          5.0280741339       -0.0701061718        0.6330634652
 H          5.6163463750        0.8126976435        0.3528581495
 H          4.8490747706        0.0327343493        1.7092858349
 H          4.2294502342       -3.8651705041       -1.2740067804
 H          2.5406643610       -3.4576203288       -0.9580791794
 H          3.1457549026       -1.9595482694       -2.6381283884
 H          4.7465474189       -1.6476046810       -1.9814786375
 O          1.9134069455       -0.3266064596       -1.5382206712
 C          1.1264427171        0.7124588050       -1.0679678984
 O          0.0444180394        0.8202677994       -1.6740025519
 O          3.3785411599        1.8924230334        1.4979058016
 C          0.7946723275        2.5738892171        0.6428015627
 C         -0.5085441988        1.9607651199        1.0850252359
 C         -0.5821029917        1.2921607402        2.3033580517
 C         -1.7407153229        0.6390758779        2.6818146372
 C         -2.8341239007        0.6043909900        1.8340184108
 C         -2.7587778672        1.2488116617        0.6060773058
 C         -1.6176995208        1.9569039095        0.2541386494
 H         -1.5728107520        2.4601481078       -0.6986579607
 N         -3.8322393764        1.1462522006       -0.2959573326
 S         -4.5299057656       -0.3662030565       -0.4687255805
 O         -4.9932090616       -0.4222384330       -1.8384366626
 O         -5.5555376761       -0.5290077341        0.5346800555
 C         -3.2476989588       -1.5818251961       -0.1914758951
 C         -3.5113716356       -2.6379978851        0.6585773324
 C         -2.5300619783       -3.5918270242        0.8732658544
 C         -1.3017615008       -3.4723622972        0.2413117929
 C         -1.0545646934       -2.4082959333       -0.6111124937
 C         -2.0346571404       -1.4546874017       -0.8374661304
 H         -1.8342405324       -0.6159027992       -1.4853035572
 H         -0.0991164480       -2.2970402801       -1.1003603408
 H         -0.5332215111       -4.2092852064        0.4149525360
 H         -2.7228590484       -4.4204910863        1.5354859664
 H         -4.4749820771       -2.6852354397        1.1397405292
 H         -3.6297149769        1.5484930013       -1.2000598785
 H         -3.7388019533        0.0814714699        2.1000144439
 H         -1.7894839174        0.1372297156        3.6359591768
 H          0.2855626347        1.2824511720        2.9480451991
 H          1.3710097407        2.8428172548        1.5419597870
 C          0.6131445196        3.8583297495       -0.1502066449
 C          1.7794023335        4.4716289184       -0.8654570284
 C          0.6201837331        3.9328487542       -1.6460811826
 H         -0.0484703387        4.6380102861       -2.1189088444
 H          0.7525742349        3.0207599168       -2.2049029229
 H          1.9180583919        5.5409305174       -0.8135391085
 H          2.7020564184        3.9093556729       -0.8740002218
 H         -0.0551348353        4.5457551872        0.3604923805
