  62
        -98.94274058
 C         -1.8105246999       -0.9007544403        0.2109925711
 C         -3.1646363599       -1.2760138201        0.4038815713
 C         -4.1117459599       -0.1822189198        0.6572233905
 C         -3.6498737798        1.0780093302        0.7470174196
 C         -4.5067885397        2.2937965904        0.9450612787
 C         -4.9270768097        2.9001010994       -0.4012001617
 C         -5.4971507597        1.8800838188       -1.3869571010
 H         -5.7870014596        2.4250880081       -2.2879612914
 H         -4.7074523597        1.1823658485       -1.6757012005
 C         -6.7023008997        1.0900539892       -0.8576400505
 H         -7.1378439697        1.6077687598       -0.0022332709
 H         -7.4661140197        1.0530951287       -1.6372455405
 C         -6.3926398398       -0.3571139005       -0.4694694895
 H         -7.3413490199       -0.8795573704       -0.3205529991
 H         -5.8729742498       -0.8542189711       -1.2928954191
 C         -5.5627291699       -0.5427210697        0.8072236707
 H         -6.0177311999        0.0176586809        1.6265010703
 H         -5.5822450699       -1.6057750795        1.0650418215
 H         -4.0520450196        3.3663233891       -0.8599381920
 H         -5.6677758996        3.6793660396       -0.2129998523
 H         -5.3873709998        2.0210448908        1.5233835189
 H         -3.9310611897        3.0338535308        1.5032697782
 O         -2.3368205898        1.3927454101        0.6220718594
 C         -1.3839360998        0.4209749498        0.3413536602
 O         -0.2266082098        0.8672443997        0.2473857299
 H          1.8255419301       -1.6434446612       -0.8728033682
 C          1.6927198201       -1.6868555404        0.1946204218
 C          0.4311279001       -1.8451506100        0.7454677519
 C          0.3073145400       -1.8779485490        2.1327508719
 C          1.4160573600       -1.7420467285        2.9440325018
 C          2.6736097100       -1.5748489489        2.3902080917
 C          2.8111019601       -1.5479954999        1.0077734517
 N          4.0856310801       -1.4350850304        0.4294622717
 S          4.4460730802       -0.4508754913       -0.8703456390
 O          3.5804674402       -0.7544743421       -1.9803511488
 O          5.8607320202       -0.6611732815       -1.0908478388
 C          4.1909955902        1.2224236791       -0.3049361202
 C          5.2982482303        2.0214283392       -0.0907037507
 C          5.1163872703        3.3146563595        0.3705159483
 C          3.8348768703        3.7838195998        0.6183046980
 C          2.7361931203        2.9665386697        0.4045602885
 C          2.9087241603        1.6725502693       -0.0632274106
 H          2.0563798602        1.0330969392       -0.2278479001
 H          1.7336611003        3.3141669399        0.5976416182
 H          3.6907728104        4.7902007100        0.9791831872
 H          5.9709027503        3.9508326296        0.5365317579
 H          6.2748262703        1.6139328390       -0.2966812204
 H          4.8406422301       -1.4004152899        1.0991241917
 H          3.5418070200       -1.4701728185        3.0231028017
 H          1.3030124900       -1.7643099277        4.0175569118
 H         -0.6760132800       -2.0053813586        2.5654522219
 C         -0.8120296499       -2.0018974905       -0.0940890581
 H         -1.3191683300       -2.9279352003        0.2268335526
 C         -0.5112578099       -2.1646605816       -1.5767037680
 C         -1.5184746398       -1.7968933723       -2.6236377382
 C         -0.2638693598       -0.9920592822       -2.4757365288
 H          0.5057174902       -1.0776312028       -3.2294016387
 H         -0.3330073097       -0.0066046119       -2.0421683995
 H         -1.6224502698       -2.4406410029       -3.4841057678
 H         -2.4482770798       -1.3570782420       -2.2926012586
 H          0.0768801901       -3.0560814518       -1.7750147973
 O         -3.5607826299       -2.4716665201        0.3700151322
