  62
        -98.94027486
 C         -1.7868042832       -1.1057234438       -0.2365170727
 C         -3.1356503617       -1.3674939948        0.0950778484
 C         -4.1204758416       -0.3521950797       -0.3174192874
 C         -3.6944450878        0.7392447376       -0.9770665077
 C         -4.5175916744        1.9116043981       -1.4345645104
 C         -4.5064119515        3.0293829543       -0.3777273523
 C         -5.5853133189        2.9100819476        0.6979387487
 H         -5.3853741575        3.6808692447        1.4458129951
 H         -6.5593161810        3.1286571227        0.2551546975
 C         -5.6617570321        1.5519620709        1.4003057925
 H         -4.6544808505        1.1973239232        1.6261442650
 H         -6.1745791343        1.6960447163        2.3532939298
 C         -6.4177849821        0.4922076140        0.5851206916
 H         -7.1843075773        0.0321313847        1.2122624314
 H         -6.9431779210        0.9811141095       -0.2350315136
 C         -5.5522363538       -0.6511104337        0.0352338736
 H         -5.4917713849       -1.4515003251        0.7795595310
 H         -6.0449354089       -1.0809320154       -0.8434206763
 H         -3.5189040435        3.0373548702        0.0906179914
 H         -4.6370822508        3.9891111286       -0.8816674051
 H         -4.0440784955        2.2875674312       -2.3438762784
 H         -5.5315144739        1.6027030193       -1.6704534260
 O         -2.3836338887        0.9499292524       -1.2799377230
 C         -1.4002080913        0.0445385273       -0.9219437185
 O         -0.2487297891        0.3734498996       -1.2624371092
 O         -3.5014267659       -2.3999774965        0.7198074448
 C         -0.7211029439       -2.1123187148        0.1564647835
 C          0.3308225389       -1.4470712786        1.0081014427
 C         -0.0707001281       -0.7615128773        2.1530322685
 C          0.8539252211       -0.1340117993        2.9639617176
 C          2.2011863560       -0.1690915970        2.6463497814
 C          2.6135521827       -0.8546365015        1.5113440557
 C          1.6819831850       -1.4981432656        0.7059223221
 H          2.0340578439       -2.0173686072       -0.1689917935
 N          3.9786894228       -0.9334075499        1.1760670513
 S          4.5013422311       -0.4118464430       -0.3271578284
 O          3.8536151309       -1.1702462558       -1.3645249992
 O          5.9434894570       -0.5151358389       -0.2664068525
 C          4.0370955951        1.3094084560       -0.3958764567
 C          2.7276911773        1.6537306787       -0.6647116147
 C          2.3786606747        2.9960002731       -0.6484963854
 C          3.3316464990        3.9620557875       -0.3667725725
 C          4.6426854056        3.5973094656       -0.0983346313
 C          4.9991708614        2.2591187012       -0.1075913811
 H          6.0060000928        1.9287074603        0.0911510668
 H          5.3839550601        4.3495067025        0.1188274088
 H          3.0503965528        5.0034715389       -0.3577531527
 H          1.3557901940        3.2665798577       -0.8581401583
 H          1.9926777372        0.8956928337       -0.8857375010
 H          4.5919836992       -0.5578738258        1.8863852829
 H          2.9264622927        0.3255766575        3.2746099985
 H          0.5253429424        0.3923875248        3.8473397351
 H         -1.1241850973       -0.7291105348        2.3962763039
 H         -1.2392663516       -2.8618975492        0.7730612489
 C         -0.1653925216       -2.7990575264       -1.0730218575
 C          0.3979622435       -4.1838093179       -0.9704980288
 C         -0.9136094337       -3.9570899213       -1.6589245560
 H         -0.9574277535       -4.0525507880       -2.7335609537
 H         -1.8172715792       -4.2683569618       -1.1552727760
 H          1.2597094070       -4.4326251024       -1.5716832320
 H          0.3864413482       -4.6573250285       -0.0003616635
 H          0.3062549591       -2.1093774219       -1.7651879327
