  62
        -98.94060095
 C         -1.1106237654       -1.3557053961        0.5417409277
 C         -1.6688191315       -0.8066838067       -0.6351088299
 C         -2.5448047262        0.3723139520       -0.4660964408
 C         -2.6668659518        0.9225008941        0.7555895483
 C         -3.5075819790        2.0987013491        1.1780121672
 C         -5.0002893264        1.7520328949        1.2887643107
 C         -5.5583486570        0.9473638278        0.1183188882
 H         -6.5956819681        0.6956051556        0.3542714894
 H         -5.0086793942        0.0082747172        0.0352945016
 C         -5.5465008869        1.6656850455       -1.2292578387
 H         -6.1036347647        2.6010334988       -1.1420271771
 H         -6.0798990019        1.0283782071       -1.9391100243
 C         -4.1645656440        1.9703704965       -1.8138707827
 H         -3.7279561156        2.8502759028       -1.3487066399
 H         -4.3064123539        2.2172877250       -2.8699315740
 C         -3.1863344423        0.8009815147       -1.7637328191
 H         -2.3545608085        1.0035477208       -2.4476816169
 H         -3.6765769930       -0.0907450204       -2.1709446681
 H         -5.5624132291        2.6814118692        1.3960426390
 H         -5.1459235018        1.1636419818        2.1981149784
 H         -3.3590022705        2.9350875069        0.5017631882
 H         -3.1495465010        2.4001234467        2.1649590484
 O         -2.0124256119        0.4226170018        1.8439063095
 C         -1.2466394791       -0.7203850213        1.7760381419
 O         -0.7329260589       -1.0641204918        2.8621297350
 O         -1.4739472857       -1.2758532781       -1.7854500308
 C         -0.2525759096       -2.6116317643        0.4999860539
 C          1.0809424325       -2.2367987328       -0.0979423336
 C          1.4982704088       -2.6087487406       -1.3680387507
 C          2.7097909896       -2.1569773587       -1.8657036297
 C          3.5271648937       -1.3343260113       -1.1118426780
 C          3.1177556871       -0.9620838827        0.1623528297
 C          1.9061793446       -1.4121392861        0.6584317287
 H          1.5809942385       -1.1115393370        1.6466886987
 N          3.9333932486       -0.1020328837        0.9349113706
 S          4.0915442237        1.4457914404        0.3125230145
 O          4.9312797464        1.3929601828       -0.8565005660
 O          4.5687858671        2.2613691320        1.4058916493
 C          2.4369419299        1.9283410721       -0.1469207976
 C          2.0013596352        1.7124714838       -1.4385088576
 C          0.7011915416        2.0556898304       -1.7710404318
 C         -0.1356051798        2.6035703522       -0.8119398583
 C          0.3126761296        2.8021413824        0.4846076090
 C          1.6102294807        2.4570165178        0.8241086947
 H          1.9982368234        2.6051191483        1.8195793422
 H         -0.3450103419        3.2188125509        1.2308142728
 H         -1.1436833754        2.8775249870       -1.0772677407
 H          0.3441129091        1.8910568613       -2.7749457657
 H          2.6848018451        1.2926254914       -2.1581073278
 H          3.6244930192       -0.0372458844        1.8954415158
 H          4.4647017429       -0.9611073717       -1.4911701523
 H          3.0204462776       -2.4488226443       -2.8573620827
 H          0.8679911621       -3.2372361449       -1.9746935852
 H         -0.0802424617       -2.8900146165        1.5491670946
 C         -0.9487989360       -3.7581164576       -0.1986824900
 C         -0.4565802353       -5.1563919683        0.0184329500
 C         -1.7614543153       -4.7203276949        0.6123492615
 H         -2.6765498975       -5.1064405126        0.1890028927
 H         -1.8094855124       -4.5604227104        1.6799666667
 H         -0.4752600481       -5.8454516827       -0.8119501795
 H          0.3828613064       -5.2922817486        0.6836758540
 H         -1.3247030103       -3.4965550205       -1.1794072069
