  62
        -98.94064608
 C         -1.5982214127       -0.5561207141        0.7822259746
 C         -2.9564757693       -0.6725415338        1.1781314413
 C         -3.9459693194       -0.7379728709        0.0976652656
 C         -3.5390897446       -0.6730611224       -1.1825579256
 C         -4.4228569151       -0.7458076504       -2.3980922738
 C         -5.0549753011        0.5966744470       -2.7900872167
 C         -6.1726247161        1.0837737600       -1.8669082774
 H         -6.6690454528        1.9127848543       -2.3752536346
 H         -6.9102389576        0.2904880543       -1.7414489034
 C         -5.6923374971        1.5656379293       -0.4907404608
 H         -4.6168543711        1.7558376514       -0.5266279883
 H         -6.1757380222        2.5148418235       -0.2485283482
 C         -5.9877868451        0.6009685900        0.6579354621
 H         -5.5719984484        1.0239875399        1.5759658155
 H         -7.0681010979        0.5081921160        0.7894552553
 C         -5.3957722185       -0.8023270774        0.4728929243
 H         -5.9595708150       -1.3521248061       -0.2804246376
 H         -5.4706506647       -1.3335164045        1.4249053593
 H         -4.2670399028        1.3521835913       -2.8396956421
 H         -5.4673915601        0.4814987716       -3.7951999426
 H         -5.2075069523       -1.4857412519       -2.2373411460
 H         -3.7904973229       -1.0816653769       -3.2228325752
 O         -2.2308303786       -0.5475150610       -1.5246236319
 C         -1.2297881596       -0.4605177782       -0.5611272216
 O         -0.0910131024       -0.3176322306       -1.0404318304
 O         -3.3252445623       -0.7208655954        2.3816020831
 C         -0.5614291413       -0.4492777497        1.8870578561
 C          0.2720178024        0.7921851450        1.6974578477
 C         -0.2988029836        2.0248454532        2.0042169573
 C          0.4222359418        3.1943271060        1.8649791313
 C          1.7272931347        3.1549225186        1.4072426235
 C          2.3022934873        1.9334929698        1.0810645820
 C          1.5782272805        0.7579360139        1.2323484470
 H          2.0329511178       -0.1828764469        0.9692010094
 N          3.6347446119        1.8681392878        0.6229396347
 S          3.8934775115        1.3141348057       -0.9479448213
 O          5.1861701212        1.8669635836       -1.3043559747
 O          2.7992411889        1.6718331279       -1.8192214920
 C          4.0638677171       -0.4491386211       -0.7981387405
 C          3.0825743963       -1.2854080203       -1.2898970363
 C          3.2759364650       -2.6562649612       -1.2025324758
 C          4.4298748905       -3.1601537911       -0.6225908352
 C          5.4000534008       -2.3031968575       -0.1240302643
 C          5.2199982474       -0.9331017666       -0.2163430352
 H          5.9551866171       -0.2300575394        0.1382604148
 H          6.2942462144       -2.6990160918        0.3298714540
 H          4.5717052598       -4.2277630322       -0.5587187903
 H          2.5191485073       -3.3224721362       -1.5857997733
 H          2.1840330775       -0.8565079348       -1.7054586928
 H          4.1339600157        2.7406019144        0.7364595808
 H          2.2977071982        4.0653803628        1.2950896722
 H         -0.0321657427        4.1421596362        2.1118634763
 H         -1.3209198406        2.0523498145        2.3572158388
 H         -1.1639896955       -0.3048785097        2.7994600894
 C          0.2686097928       -1.7010632912        2.1228191531
 C         -0.3741534677       -3.0541457126        2.0575309909
 C          0.6524700350       -2.6610658860        1.0401690783
 H          1.6296260717       -3.1181104253        1.0944420913
 H          0.3281615310       -2.4456462365        0.0351881361
 H         -0.1098549372       -3.7891752711        2.8024895343
 H         -1.4087028384       -3.0954098463        1.7484459869
 H          0.9962707335       -1.5509037805        2.9147117964
