  62
        -98.94269839
 C         -1.1249083300       -1.3630848005        0.4338150198
 C         -1.4735437600       -0.6134950902       -0.7162758500
 C         -2.4589507801        0.4565915397       -0.5052220996
 C         -2.9259510201        0.7117784593        0.7289950504
 C         -3.9217496101        1.7771740291        1.1001480607
 C         -5.3850403101        1.3644253991        0.8875050706
 C         -5.8382755001        1.2908044796       -0.5712346994
 H         -6.9271087901        1.2098916295       -0.5639398994
 H         -5.5860712901        2.2229773597       -1.0776968391
 C         -5.2617122900        0.1035018398       -1.3551945798
 H         -6.0594838000       -0.3787428800       -1.9247176599
 H         -4.8741370500       -0.6408126104       -0.6556725300
 C         -4.1578144101        0.4741254302       -2.3458186797
 H         -3.7941084900       -0.4441528697       -2.8140609899
 H         -4.5698151101        1.1109037604       -3.1319033895
 C         -2.9590700001        1.1918838100       -1.7120122094
 H         -2.1494832401        1.2198915103       -2.4452712394
 H         -3.2328240301        2.2136949699       -1.4510461291
 H         -5.5489673801        0.3972998290        1.3683678703
 H         -6.0084507401        2.0998989490        1.4012360908
 H         -3.7163121502        2.6884100493        0.5378223410
 H         -3.7788892101        1.9819814288        2.1633104208
 O         -2.5114361801        0.0170809090        1.8207528902
 C         -1.6299753500       -1.0414735009        1.6980699399
 O         -1.3721589000       -1.6168889713        2.7734983297
 O         -1.0041081600       -0.8074999098       -1.8679815100
 C         -0.1888581699       -2.5629588305        0.3968451895
 C          1.2457169100       -2.1096469904        0.4571343396
 C          2.0964649400       -2.5258461807        1.4734202595
 C          3.4004952000       -2.0630274707        1.5357882496
 C          3.8799896500       -1.1740164704        0.5898154599
 C          3.0341586500       -0.7523606301       -0.4273453900
 C          1.7318717400       -1.2204536801       -0.4923535701
 H          1.0768595700       -0.8883221899       -1.2846609000
 N          3.4975989300        0.1946185302       -1.3736063697
 S          3.6958189599        1.7302213800       -0.7311036092
 O          3.8039536499        2.6249756904       -1.8601834989
 O          4.8150026199        1.7079991198        0.1754436708
 C          2.1881631799        2.0437649997        0.1710253309
 C          2.0966985899        1.6363612193        1.4867668807
 C          0.9024912999        1.8228609990        2.1637153908
 C         -0.1717966502        2.4136717292        1.5178942010
 C         -0.0662985702        2.8114700896        0.1943001911
 C          1.1219394998        2.6185387298       -0.4905250790
 H          1.2438823198        2.9170450402       -1.5195263389
 H         -0.9065234702        3.2646738697       -0.3061441888
 H         -1.0975320202        2.5605980790        2.0513699510
 H          0.8089162499        1.5001775787        3.1885044807
 H          2.9564705599        1.1904151392        1.9594444306
 H          2.8857546900        0.2598753004       -2.1767073797
 H          4.8834352700       -0.7828844203        0.6357760900
 H          4.0491091800       -2.3940996809        2.3325157895
 H          1.7247927401       -3.2032151510        2.2283278393
 H         -0.4012455899       -3.1177035308        1.3236150193
 C         -0.4842989899       -3.4964337701       -0.7716914908
 C          0.4962982401       -3.8118036098       -1.8581801009
 C          0.1684409702       -4.8461996401       -0.8267815212
 H         -0.4261384098       -5.7003038700       -1.1135526315
 H          0.9201649002       -5.0612926703       -0.0820564213
 H          0.1096085301       -3.9335879895       -2.8587572310
 H          1.4715923101       -3.3524357797       -1.8236722208
 H         -1.5264247999       -3.4534237901       -1.0713400408
