  62
        -98.93744532
 C          1.8529038594        0.5767011394       -0.5098955009
 C          2.9466367994        1.3052641900        0.0164059981
 C          4.2730077694        0.6914520299       -0.1421037513
 C          4.3733464794       -0.4959321409       -0.7669497699
 C          5.6392844494       -1.2872651211       -0.9357485990
 C          5.9956280695       -1.9983209095        0.3854617018
 C          7.2899676896       -1.5088960686        1.0356176811
 H          7.3221618197       -1.9179081074        2.0477020216
 H          8.1398754595       -1.9203502393        0.4870836215
 C          7.4691848996        0.0107267015        1.1056133792
 H          8.2799302196        0.2025984523        1.8116645789
 H          7.8049969995        0.3855659503        0.1376340587
 C          6.2362279896        0.8126220120        1.5418882183
 H          6.5713990896        1.6230070228        2.1923640273
 H          5.5619320997        0.1907044327        2.1309860892
 C          5.4516938795        1.4617306905        0.3862343076
 H          5.0312198395        2.4082970110        0.7383401665
 H          6.1354694594        1.6918192195       -0.4354554027
 H          5.1638308696       -1.8653978486        1.0805088218
 H          6.0864154895       -3.0710430097        0.2080449631
 H          5.4619978293       -2.0183865321       -1.7247546481
 H          6.4468368793       -0.6279951015       -1.2462250499
 O          3.2991899293       -1.1651694215       -1.2602249289
 C          2.0135421193       -0.6544992314       -1.1445385194
 O          1.1308040493       -1.3791962520       -1.6406096484
 O          2.8183298295        2.4184694508        0.5935856467
 C          0.4568599194        1.1614369895       -0.3706422215
 C         -0.3807534105        0.2354454206        0.4747471297
 C         -0.0302164004        0.0680035822        1.8133505099
 C         -0.7313526103       -0.8017675668        2.6242475511
 C         -1.8037932703       -1.5175252874        2.1198850620
 C         -2.1616248205       -1.3597571191        0.7867569419
 C         -1.4549037306       -0.4815485101       -0.0261250893
 H         -1.7386720107       -0.3991599513       -1.0610865293
 N         -3.2281803305       -2.0970682597        0.2497794129
 S         -4.3614830806       -1.3919830610       -0.7531181078
 O         -5.4339646806       -2.3603190811       -0.8176543665
 O         -3.7667188307       -1.0126539625       -2.0084197484
 C         -4.9094042605        0.0526021801        0.1379945804
 C         -5.9115469904       -0.0962255088        1.0773542007
 C         -6.3081348004        1.0064258221        1.8160330694
 C         -5.6927495304        2.2320678919        1.6100205278
 C         -4.6874699705        2.3642431807        0.6647844776
 C         -4.2886105606        1.2656572098       -0.0805325611
 H         -3.5139676407        1.3329203889       -0.8259673813
 H         -4.2107298505        3.3178646906        0.5030727263
 H         -5.9996818504        3.0902814626        2.1867427268
 H         -7.0926736003        0.9074398330        2.5488359796
 H         -6.3705023604       -1.0642245086        1.1972057520
 H         -3.6728278004       -2.7242461989        0.9038642337
 H         -2.3498675802       -2.2041451367        2.7488596629
 H         -0.4450551902       -0.9239444555        3.6579142712
 H          0.8112715297        0.6244097727        2.2029848091
 H          0.5936157194        2.1017471902        0.1825180373
 C         -0.1341960408        1.4802183379       -1.7264861818
 C         -1.1836103008        2.5426726077       -1.8508788230
 C          0.2004717592        2.7918490771       -2.3689651535
 H          0.3572327391        2.8171471958       -3.4369343635
 H          0.8400241092        3.4655319378       -1.8175491644
 H         -1.9795998209        2.3984651568       -2.5666512428
 H         -1.4813028007        3.0557583688       -0.9487584736
 H         -0.2040760208        0.6152377271       -2.3763928908
