  62
        -98.94446898
 C         -1.7624387630       -0.7412856601        0.0318202701
 C         -2.9464789640       -1.2287988419        0.6357261106
 C         -4.1967319149       -0.9185345962       -0.0657537444
 C         -4.1598701325       -0.2299968884       -1.2211839654
 C         -5.3485520007        0.1488289397       -2.0625447991
 C         -6.0501237279        1.4352267168       -1.6052980572
 C         -6.8611922571        1.3107075047       -0.3148042113
 H         -7.5450123887        0.4653435682       -0.3972367010
 H         -7.4685995612        2.2140433138       -0.2301516226
 C         -6.0117035969        1.1666259433        0.9556773865
 H         -6.3961291299        1.8360277769        1.7285887652
 H         -4.9859518694        1.4784001894        0.7444843469
 C         -5.9898905797       -0.2431347691        1.5466908495
 H         -6.9931192843       -0.5152834814        1.8818738630
 H         -5.3329767435       -0.2384755240        2.4202173995
 C         -5.4865019991       -1.3245315011        0.5814587821
 H         -6.2423763903       -1.5360294145       -0.1743159594
 H         -5.2984442373       -2.2354275238        1.1548952620
 H         -6.7272705624        1.7395604593       -2.4067539307
 H         -5.2986391440        2.2199743934       -1.4900517115
 H         -4.9743849417        0.3030055271       -3.0769428911
 H         -6.0652688733       -0.6726580552       -2.0772343596
 O         -2.9980889269        0.1996552352       -1.7827838557
 C         -1.7753769756       -0.0217615439       -1.1627417003
 O         -0.7991650435        0.4571184963       -1.7706594717
 H          2.1465925032       -0.1308802483        0.2201876315
 C          1.5512901927        0.5898853067        0.7543118641
 C          0.2309137365        0.3112357701        1.0704607606
 C         -0.5046778615        1.2692189307        1.7649401692
 C          0.0612420390        2.4787938063        2.1147510306
 C          1.3746172989        2.7600403496        1.7803128435
 C          2.1221386156        1.8087969714        1.0979875645
 N          3.4703125323        2.0467418584        0.7956897693
 S          4.1373846964        1.5381186775       -0.6528545920
 O          5.3506992044        2.3210756134       -0.7709872352
 O          3.2080342814        1.6435410349       -1.7518397180
 C          4.5878626020       -0.1609029150       -0.3718624195
 C          4.3085821677       -1.1015958206       -1.3429647755
 C          4.7070077518       -2.4139056573       -1.1394467277
 C          5.3734607539       -2.7598895148        0.0263677604
 C          5.6446371089       -1.8026851708        0.9924315795
 C          5.2538286930       -0.4884137424        0.7928419440
 H          5.4513242277        0.2832980566        1.5176207680
 H          6.1604224946       -2.0770799762        1.8983854164
 H          5.6794974807       -3.7823339256        0.1824061290
 H          4.4947509592       -3.1587985755       -1.8902668863
 H          3.7751344834       -0.7902389928       -2.2276234570
 H          3.8061678634        2.9639489555        1.0517807296
 H          1.8171737475        3.7081158367        2.0460257583
 H         -0.5241178852        3.2129602357        2.6478813209
 H         -1.5321209710        1.0508022149        2.0231117593
 C         -0.4338858265       -0.9966869429        0.7197012243
 H         -0.6921376611       -1.5079544731        1.6596272496
 C          0.4352631859       -1.9191067506       -0.1076271971
 C          1.4264203209       -2.8162820360        0.5700318699
 C          0.1877583251       -3.3955003746       -0.0425368929
 H          0.2796985907       -3.9727827932       -0.9501361394
 H         -0.5996604908       -3.7365374560        0.6136378220
 H          1.4828709609       -2.7687260564        1.6468615215
 H          2.3740409105       -2.9974550930        0.0862445880
 H          0.6954114969       -1.4958235769       -1.0720263601
 O         -2.9569802030       -1.8871075568        1.7101057965
