  62
        -98.94226396
 C         -0.6428304705       -1.4412457791        0.5381995905
 C         -1.1195481099       -0.8685557589       -0.6622537796
 C         -2.1712998292        0.1599167618       -0.5343705899
 C         -2.5889208292        0.5094508422        0.6965208699
 C         -3.7157124087        1.4374914130        1.0641231696
 C         -5.0973021991        0.7938225439        0.8509725594
 C         -5.2527037493        0.0058335039       -0.4476194506
 H         -4.4902759898       -0.7744106166       -0.4874147904
 H         -6.2245362997       -0.4941494154       -0.4167211408
 C         -5.1962034985        0.8369356038       -1.7272954307
 H         -6.0020805280        1.5742381943       -1.7103929909
 H         -5.3853563387        0.1583881939       -2.5630269007
 C         -3.8775592379        1.5656101229       -1.9919996604
 H         -3.9054078875        1.9233948028       -3.0251646504
 H         -3.7895582575        2.4451582629       -1.3613684504
 C         -2.6306957285        0.6952387321       -1.8683113601
 H         -2.7403555590       -0.1797227079       -2.5185982500
 H         -1.7745233981        1.2498313715       -2.2707610899
 H         -5.8536665986        1.5792120244        0.8949170091
 H         -5.2793656397        0.1043626141        1.6790853594
 H         -3.6040655788        1.6663357530        2.1261230096
 H         -3.6346888979        2.3671409529        0.5106958896
 O         -2.0457314899       -0.0213169781        1.8307338101
 C         -1.0758687005       -1.0021942488        1.7871234404
 O         -0.6844923110       -1.3967706090        2.9061165705
 H          1.6083753703       -0.2147948507        0.5072618109
 C          2.0978838300       -0.9024437810       -0.1672476689
 C          1.5832612992       -2.1836671607       -0.3178723690
 C          2.2319355488       -3.0643448912       -1.1744535888
 C          3.3608264692       -2.6625109620       -1.8666963585
 C          3.8682623000       -1.3858894823       -1.7159037785
 C          3.2276612004       -0.4971546518       -0.8584511887
 N          3.6977097813        0.8123416779       -0.7154165887
 S          3.3076210616        1.7796353682        0.5777689712
 O          4.2219296124        2.8971256876        0.4658074813
 O          3.3487850509        1.0620559283        1.8310490412
 C          1.6624516221        2.3624836793        0.2332333708
 C          0.7404448019        2.4361069800        1.2573850606
 C         -0.5077945076        2.9792527208        0.9992994903
 C         -0.8105687071        3.4334801109       -0.2742268198
 C          0.1209865331        3.3398344402       -1.2962225496
 C          1.3729043227        2.8045366594       -1.0420878993
 H          2.1251032228        2.7254464889       -1.8091390191
 H         -0.1223691664        3.6893756603       -2.2868207697
 H         -1.7773332567        3.8679876816       -0.4718610501
 H         -1.2324007478        3.0460248813        1.7948166001
 H          1.0112001515        2.0615023999        2.2330154907
 H          4.5910689115        1.0209530772       -1.1331129085
 H          4.7478640304       -1.0729237829       -2.2570030783
 H          3.8540694789       -3.3549557824       -2.5318517184
 H          1.8531415181       -4.0650501209       -1.3021932088
 C          0.3683087687       -2.5700765898        0.4890420408
 H          0.6928299284       -2.7337704300        1.5282970609
 C         -0.3069220820       -3.8313645894       -0.0143864193
 C          0.1198253570       -5.1771112496        0.4875662609
 C         -1.1921251527       -4.5972150687        0.9207263006
 H         -2.1027129429       -5.0294946681        0.5337678604
 H         -1.2808395927       -4.2250431886        1.9314319305
 H          0.9202636368       -5.2107396001        1.2113683111
 H          0.1068654766       -6.0119834697       -0.1969262690
 H         -0.6255109617       -3.7453915192       -1.0471863294
 O         -0.7073803698       -1.2147651792       -1.8003950795
