  62
        -98.93755166
 C          1.8546900271        0.7560173825        0.7553533785
 C          2.2679561805        0.3429275285       -0.5322177074
 C          3.7205586863        0.3494137263       -0.7868320421
 C          4.5621502814        0.7535043642        0.1831432384
 C          6.0691117682        0.9064379367        0.1939042871
 C          6.9289515125        0.2543376345       -0.8858551623
 C          6.9391199377       -1.2736966831       -0.8605490401
 H          7.5019463641       -1.6255687992       -1.7279111627
 H          7.4703160322       -1.6030642449        0.0361272605
 C          5.5667542864       -1.9427417403       -0.8542790338
 H          5.7227985438       -3.0248903955       -0.8362961516
 H          5.0354259687       -1.6809330979        0.0631472355
 C          4.6755680176       -1.6220094472       -2.0528124686
 H          5.2097159022       -1.8469399939       -2.9779952590
 H          3.8046632091       -2.2810383124       -1.9996969043
 C          4.1549303667       -0.1757313119       -2.1245689001
 H          4.8862719044        0.4869305633       -2.5808014118
 H          3.2637594276       -0.1696423652       -2.7587766577
 H          7.9539969495        0.5934954769       -0.7128239893
 H          6.6397934290        0.6165198042       -1.8679110919
 H          6.2583977414        1.9855611534        0.1811424770
 H          6.3963305430        0.5490955861        1.1755117281
 O          4.1096748647        1.1704500353        1.4032063627
 C          2.7644991594        1.1679142703        1.7257174655
 O          2.5118251349        1.5445533414        2.8887260442
 H         -2.1262065431        0.0982497682        0.1971021658
 C         -1.5261124384       -0.7638314013        0.4372227958
 C         -0.2304368237       -0.6059035815        0.9058039333
 C          0.5041681920       -1.7451855238        1.2234579393
 C         -0.0318686439       -3.0055198050        1.0468234731
 C         -1.3242418706       -3.1581817330        0.5766890030
 C         -2.0757340594       -2.0290687090        0.2794104199
 N         -3.3911630390       -2.1457696020       -0.1956557618
 S         -4.5775517563       -1.1373455330        0.4192249520
 O         -4.3059521077       -0.7691711067        1.7890746865
 O         -5.8179869518       -1.8476834137        0.1875219369
 C         -4.5484104838        0.3045931821       -0.6241764366
 C         -4.3300266707        0.1516899325       -1.9790484834
 C         -4.3602258864        1.2737965318       -2.7915796463
 C         -4.6167076619        2.5209458050       -2.2419660171
 C         -4.8399249476        2.6567214856       -0.8805786993
 C         -4.8056491874        1.5387930137       -0.0612995316
 H         -4.9606416643        1.6012286058        1.0039935022
 H         -5.0386592938        3.6270242811       -0.4535677575
 H         -4.6410602560        3.3921930856       -2.8774516429
 H         -4.1838851509        1.1726888422       -3.8504118669
 H         -4.1320031617       -0.8309616142       -2.3732017080
 H         -3.7250571769       -3.0944255846       -0.2868248208
 H         -1.7468708443       -4.1424480631        0.4423555413
 H          0.5578606826       -3.8780215341        1.2855507393
 H          1.5102073720       -1.6300040788        1.6039290204
 C          0.3809683508        0.7593027397        1.1119431631
 H          0.3263837862        0.9941135298        2.1859881186
 C         -0.3292361072        1.8529884635        0.3390384048
 C         -1.4923058549        2.5815927141        0.9399104006
 C         -0.1707795890        3.2722071726        0.7922586539
 H         -0.0725410234        4.0452087230        0.0452341305
 H          0.4222448823        3.4433083452        1.6792060028
 H         -2.3006446306        2.8812576149        0.2899844342
 H         -1.8082753619        2.2910566204        1.9309535574
 H         -0.3386454112        1.6646635442       -0.7285236293
 O          1.4651382910       -0.0142097214       -1.4326684614
