  62
        -98.93935536
 C         -1.7836945302       -1.5606048045        0.2059071571
 C         -1.7670623610       -0.5965579678       -0.8281555898
 C         -2.8387252520        0.4210500936       -0.8021581610
 C         -3.7250187550        0.4258973613        0.2107907621
 C         -4.9449967374        1.2832165969        0.4798799424
 C         -5.2607972772        2.4942638319       -0.3933789294
 C         -4.3183791270        3.6809044382       -0.1914346885
 H         -4.5431400458        4.4351834359       -0.9482941798
 H         -4.5226932526        4.1212328783        0.7876615906
 C         -2.8307241949        3.3452314601       -0.2441158884
 H         -2.2705556326        4.2599183126       -0.0326141448
 H         -2.5971435756        2.6286085867        0.5459064487
 C         -2.3377945392        2.7971010987       -1.5812560358
 H         -1.2455459390        2.7576991006       -1.5472890062
 H         -2.6161996945        3.4846661776       -2.3825355980
 C         -2.8463424453        1.3935115157       -1.9488233507
 H         -3.8369680977        1.4421764475       -2.3958548518
 H         -2.1707267668        0.9794575021       -2.7033667187
 H         -5.2974869567        2.2035436102       -1.4392190136
 H         -6.2677303126        2.8222090510       -0.1218286452
 H         -5.7951922656        0.5936400898        0.4368011665
 H         -4.8662675007        1.6038576176        1.5237489983
 O         -3.6510041258       -0.4804856963        1.2297756112
 C         -2.7132251804       -1.4932113680        1.2467520679
 O         -2.8056226580       -2.2600999059        2.2248276514
 H          1.1095675273       -1.8332002925       -1.4740672881
 C          1.4322895995       -1.7980675365       -0.4459808326
 C          0.5805860596       -2.2304111413        0.5582665212
 C          1.0083794762       -2.1372539090        1.8792446417
 C          2.2613892667       -1.6358555060        2.1829524978
 C          3.1029235905       -1.1895391962        1.1786644519
 C          2.6721944908       -1.2553442765       -0.1397135105
 N          3.4812661041       -0.7268333597       -1.1619393154
 S          4.1243425255        0.7944045149       -0.8837633280
 O          4.1723287835        1.4394504098       -2.1778440967
 O          5.3952839348        0.6568446025       -0.2143326792
 C          2.9832236724        1.6371006032        0.2047134950
 C          1.6304189977        1.6191004573       -0.0734975729
 C          0.7624072152        2.2478786721        0.8041996539
 C          1.2535789047        2.8972623887        1.9258241805
 C          2.6153623833        2.9206382925        2.1816781623
 C          3.4880707137        2.2789181652        1.3180155677
 H          4.5520814690        2.2529470346        1.4891361274
 H          2.9974139163        3.4268961877        3.0534280473
 H          0.5683632373        3.3828736294        2.6025902944
 H         -0.2973925478        2.2156459942        0.6089224764
 H          1.2531035507        1.1086638488       -0.9462421870
 H          3.0446577924       -0.7652676637       -2.0722834482
 H          4.0774579477       -0.7818029992        1.3954639303
 H          2.5835279201       -1.5818926292        3.2115212799
 H          0.3403680851       -2.4539775527        2.6677625695
 C         -0.8093272458       -2.7292554076        0.2495378074
 H         -1.1375140568       -3.3525840931        1.0914509935
 C         -0.8768720207       -3.5574308049       -1.0184050093
 C         -0.2763449690       -4.9298747604       -1.0259545431
 C         -1.7652535139       -4.7626429977       -1.0584112358
 H         -2.2904440019       -4.9853785922       -1.9752410388
 H         -2.3265256457       -5.0004448803       -0.1664675745
 H          0.1744027945       -5.2805012433       -0.1098239579
 H          0.2230355685       -5.2709974823       -1.9198720200
 H         -0.8071824668       -2.9707562501       -1.9255082460
 O         -0.9207209609       -0.5802936259       -1.7611482696
