  62
        -98.94071091
 C         -1.5682993619       -1.1190420396        0.8615292899
 C         -2.7830364699       -1.2737452718        0.1482089740
 C         -3.7758573099       -0.2021947425        0.3386618607
 C         -3.4872500511        0.8418083061        1.1351040123
 C         -4.3803635470        2.0271752005        1.3578452298
 C         -4.0877548167        3.1444571706        0.3463074330
 C         -4.0263448294        2.6650655622       -1.1039553977
 H         -3.8433649043        3.5418419603       -1.7287289348
 H         -3.1686322393        1.9993414553       -1.2245187922
 C         -5.2946956409        1.9488548831       -1.5884780400
 H         -6.1289028925        2.1829588975       -0.9260276875
 H         -5.5533127650        2.3262110352       -2.5801064093
 C         -5.1576439376        0.4303170907       -1.7122012441
 H         -4.2691667209        0.1892359683       -2.3009572782
 H         -6.0253470404        0.0541706313       -2.2607562341
 C         -5.0833064308       -0.3428400217       -0.3894760048
 H         -5.9157896181       -0.0520421191        0.2544968637
 H         -5.1839259533       -1.4070723347       -0.6220263328
 H         -4.8595751259        3.9098491950        0.4461090440
 H         -3.1264708105        3.5974466756        0.5989132882
 H         -5.4189677431        1.7123638278        1.2764103551
 H         -4.2040140647        2.4058021605        2.3661584161
 O         -2.3087077944        0.9585010208        1.7997829040
 C         -1.3299316129       -0.0125552463        1.6807072359
 O         -0.3015608026        0.2154345904        2.3498072507
 H          2.2281429399       -1.5778474843        0.8888955254
 C          1.8326711751       -1.4909642921       -0.1118165590
 C          0.4912612463       -1.7431948681       -0.3553170061
 C          0.0080665903       -1.6126088302       -1.6547367633
 C          0.8564782563       -1.2450037193       -2.6820945591
 C          2.1925302128       -0.9800902974       -2.4327981696
 C          2.6824881768       -1.0989471001       -1.1382563701
 N          4.0342747470       -0.8373643242       -0.8532567083
 S          4.4189341502        0.1818899216        0.4206367578
 O          5.8121196940        0.5087767199        0.2086549168
 O          4.0996641200       -0.4539669831        1.6718224067
 C          3.4134695280        1.6293080946        0.1489245627
 C          2.1509272346        1.7145689104        0.6990203221
 C          1.3682656201        2.8196344591        0.4002052833
 C          1.8539856580        3.8133690306       -0.4342373405
 C          3.1282129811        3.7147299041       -0.9738373201
 C          3.9136769678        2.6115151402       -0.6855125317
 H          4.9122256139        2.4989685960       -1.0761438919
 H          3.5074961618        4.4915474334       -1.6180293045
 H          1.2376875397        4.6690953374       -0.6612109379
 H          0.3803065606        2.8834744577        0.8296600490
 H          1.7803577426        0.9403680994        1.3525514744
 H          4.5847025162       -0.5975510373       -1.6659792368
 H          2.8521721650       -0.6846769736       -3.2344664469
 H          0.4727734603       -1.1540894055       -3.6869915426
 H         -1.0364941944       -1.8076809938       -1.8453767343
 C         -0.4238816586       -2.1173176793        0.7821850769
 H          0.1436940020       -1.9813720536        1.7170165674
 C         -0.8856028025       -3.5676928677        0.7438788178
 C         -0.6435216018       -4.4879795111       -0.4111811522
 C          0.1309237321       -4.6655128937        0.8576727169
 H         -0.0877027945       -5.5128512074        1.4898603941
 H          1.1717410613       -4.3756158054        0.8535249533
 H         -1.4188117350       -5.1995056775       -0.6510996456
 H         -0.1223491797       -4.1050187031       -1.2740634745
 H         -1.8154900483       -3.7128769361        1.2833670234
 O         -3.0451793097       -2.2417390898       -0.6093958748
