  62
        -98.94004874
 C          2.3630610202        1.2457533417        0.0406201117
 C          2.4489190251        0.0418220491       -0.6987405864
 C          3.8101644984       -0.4342413377       -0.9864619364
 C          4.8652982391        0.2864605705       -0.5642729450
 C          6.3018160221       -0.1111456240       -0.7401902456
 C          6.8034408137       -0.9235129228        0.4619853812
 C          5.8758499520       -2.0708468950        0.8622503722
 H          6.3446354117       -2.5911617573        1.7002835947
 H          4.9329099915       -1.6573434842        1.2274773898
 C          5.5841232747       -3.0734159812       -0.2629815436
 H          6.3308890290       -2.9734920253       -1.0514219299
 H          5.6694404301       -4.0853561284        0.1384616813
 C          4.1860824711       -2.9539034798       -0.8730415234
 H          4.0087245849       -3.8361472219       -1.4940698219
 H          3.4352971045       -2.9587916498       -0.0783122937
 C          3.9448876283       -1.7201964061       -1.7522528566
 H          4.7334577581       -1.6427773355       -2.5036408731
 H          2.9904751715       -1.8618831450       -2.2683649098
 H          7.7920582539       -1.3193003326        0.2228359704
 H          6.9037520091       -0.2506356680        1.3166732639
 H          6.4025424601       -0.6936489954       -1.6537421103
 H          6.9011093238        0.7963370499       -0.8299322662
 O          4.7409664284        1.4493095382        0.1250590215
 C          3.4926594654        1.9508850524        0.4550839935
 O          3.5202056777        3.0116413201        1.1112668610
 O          1.4439715398       -0.6060870290       -1.0956254101
 C          1.0031771196        1.8184760120        0.3969779923
 C          0.1726625470        0.7779772290        1.1075615068
 C          0.7418595092        0.0692892551        2.1623991481
 C          0.0235399056       -0.9054580385        2.8260591694
 C         -1.2754860556       -1.1955801334        2.4481928721
 C         -1.8614520817       -0.4809237585        1.4101537517
 C         -1.1428886154        0.5135019834        0.7597668108
 H         -1.6109919091        1.0492191343       -0.0471434532
 N         -3.2027857015       -0.7269234829        1.0583862811
 S         -3.7264623436       -0.9483995841       -0.5289449525
 O         -3.6474105996       -2.3559573279       -0.8643959416
 O         -3.0662907232       -0.0318402531       -1.4190134632
 C         -5.4356059515       -0.4756788598       -0.3428527853
 C         -6.4334901869       -1.4291644810       -0.3847931203
 C         -7.7506707559       -1.0287217018       -0.2201473469
 C         -8.0445755762        0.3104247658       -0.0151232039
 C         -7.0308488191        1.2566733001        0.0249401203
 C         -5.7130862242        0.8625184799       -0.1398593477
 H         -4.8944004490        1.5632025755       -0.1209644713
 H         -7.2628034263        2.2975407210        0.1838164822
 H         -9.0698440189        0.6200612700        0.1126996849
 H         -8.5410005268       -1.7613308020       -0.2525250138
 H         -6.1591638166       -2.4582569210       -0.5517434691
 H         -3.6050560562       -1.4700931851        1.6155006215
 H         -1.8322407373       -1.9698126301        2.9551065166
 H          0.4808467045       -1.4531586661        3.6367575072
 H          1.7633153250        0.2865603204        2.4463241354
 H          1.1941695790        2.6463246114        1.0961045081
 C          0.3377781714        2.3757668715       -0.8445376963
 C         -0.6025517481        3.5377263404       -0.7419112240
 C          0.7558957397        3.7238147835       -1.3464439050
 H          0.8324475401        3.8762192546       -2.4126145347
 H          1.5050818892        4.2517002564       -0.7740945677
 H         -1.4616542783        3.5594588362       -1.3955768933
 H         -0.7801389133        3.9516844620        0.2391866184
 H          0.1230590239        1.6100861431       -1.5825942200
