  62
        -98.93695089
 C         -1.6990321215       -1.1541318667        0.1397687694
 C         -1.9486984726        0.1827274372       -0.2524684615
 C         -3.2542865776        0.7414598144        0.1395493922
 C         -4.1049015986       -0.0049374798        0.8656378389
 C         -5.4915983008        0.3986090982        1.2785232315
 C         -6.4581472533        0.2582464880        0.0850314216
 C         -7.0421389842        1.5805663647       -0.4128807492
 H         -7.5233902129        1.3843163917       -1.3733976066
 H         -7.8172411331        1.9103809591        0.2821185534
 C         -6.0441302125        2.7303622572       -0.5808655611
 H         -5.8368193262        3.1813940850        0.3908046325
 H         -6.5406496841        3.4972036874       -1.1793604083
 C         -4.7113746062        2.3697792639       -1.2495360108
 H         -4.8226672698        1.4839894538       -1.8751967966
 H         -4.4303327137        3.1925021623       -1.9101985492
 C         -3.5399224540        2.1598631466       -0.2718407651
 H         -2.6193135928        2.5037275494       -0.7524674307
 H         -3.6931349599        2.7747649295        0.6195334095
 H         -7.2850419769       -0.3974242227        0.3619276686
 H         -5.9256173448       -0.2358233602       -0.7303390136
 H         -5.7931300431       -0.2629214049        2.0909774012
 H         -5.4837228148        1.4218782763        1.6475283004
 O         -3.8195389798       -1.2747281201        1.2518100890
 C         -2.6282096612       -1.8789117887        0.8945034835
 O         -2.5110859982       -3.0524809566        1.2994105132
 H          0.6553694730        0.5259115131        0.2210862985
 C          1.1613766518       -0.2416791630        0.7878191460
 C          0.7204195450       -1.5541991292        0.6976993509
 C          1.3858592410       -2.5282231950        1.4322551355
 C          2.4650337518       -2.1954662178        2.2333725886
 C          2.9005077312       -0.8849988874        2.3212698071
 C          2.2351907840        0.0948850520        1.5974429133
 N          2.6816403398        1.4363652856        1.6664495605
 S          4.1613063687        1.6989890408        0.9212771332
 O          5.1910252212        1.0518851333        1.6937332445
 O          4.2816673276        3.1309496063        0.7670498702
 C          3.9959979455        0.9089379406       -0.6686400156
 C          4.3779999108       -0.4096030400       -0.8120108691
 C          4.1627605275       -1.0386739144       -2.0273522491
 C          3.5689896964       -0.3434338123       -3.0693599308
 C          3.1863761533        0.9790896741       -2.9077157731
 C          3.3959107530        1.6122045003       -1.6936673633
 H          3.1148038479        2.6402289180       -1.5284469972
 H          2.7196410001        1.5154618026       -3.7183760500
 H          3.4042006318       -0.8332149080       -4.0165354776
 H          4.4534461447       -2.0688919604       -2.1549488818
 H          4.8379236407       -0.9133286244        0.0222388101
 H          2.0065383914        2.0817242101        1.2783316608
 H          3.7478551928       -0.6075237818        2.9271714117
 H          2.9717657825       -2.9641701379        2.7967230432
 H          1.0461639936       -3.5522447453        1.3796220795
 C         -0.4287109806       -1.9138401377       -0.2126015960
 H         -0.6678659660       -2.9726112293       -0.0470290394
 C         -0.0129437573       -1.7386371732       -1.6616965717
 C          0.7979713295       -2.8132569037       -2.3172901610
 C         -0.6337948707       -2.6091444249       -2.7103770182
 H         -0.8509231762       -2.1767948592       -3.6754197377
 H         -1.3624121517       -3.3385313769       -2.3863821983
 H          1.5680398848       -2.5211336050       -3.0131143620
 H          1.0409831015       -3.6852682533       -1.7295630259
 H          0.1998502609       -0.7115659087       -1.9270767506
 O         -1.1362115768        0.9020176668       -0.8954947619
