  62
        -98.93514367
 C          1.6929954296        0.9214700392       -0.8714049457
 C          2.0045555231       -0.1553291739       -0.0108701000
 C          3.4389109291       -0.4270409550        0.2096919354
 C          4.3530880256        0.3608907874       -0.3843764783
 C          5.8573519790        0.2802732579       -0.3156836899
 C          6.4716278569        0.0342350799        1.0711082860
 C          7.0873427701       -1.3575551990        1.2250795054
 H          7.5962879437       -1.6168292755        0.2943562400
 H          7.8454737552       -1.3193691177        2.0105908636
 C          6.1018409698       -2.4670336942        1.5881771704
 H          5.7830180921       -2.3413857445        2.6252207520
 H          6.6374975661       -3.4172967757        1.5260773049
 C          4.8537686896       -2.5488708131        0.7068716343
 H          5.1130321554       -2.3867800865       -0.3386932351
 H          4.4585016039       -3.5639642433        0.7834305646
 C          3.7381142043       -1.5805465154        1.1279004395
 H          2.7900913012       -2.1219479156        1.2047511154
 H          3.9411097183       -1.1899369130        2.1292782782
 H          5.7237284271        0.2056051549        1.8437518100
 H          7.2632923715        0.7704814174        1.2196757177
 H          6.1951190690       -0.4908275127       -1.0125181898
 H          6.2102301755        1.2343194796       -0.7139441180
 O          4.0022857535        1.3951312273       -1.2031575107
 C          2.6809180266        1.7012679732       -1.4687760969
 O          2.5177788689        2.6761193069       -2.2308644949
 H         -2.1966206690        0.3371278621       -0.2693592268
 C         -1.7189549434        1.0032092949        0.4283665131
 C         -0.4864011364        1.5597829147        0.1279316723
 C          0.0932594059        2.4320582573        1.0461692840
 C         -0.5378634913        2.7221170660        2.2395847292
 C         -1.7654782929        2.1575709459        2.5395838928
 C         -2.3575965316        1.2938386554        1.6269369085
 N         -3.5834180716        0.6824048180        1.9165423257
 S         -4.6863999379        0.3269768639        0.7163876662
 O         -4.7297242465        1.3574558251       -0.2949369091
 O         -5.9252138847        0.0898247417        1.4271105302
 C         -4.1229931874       -1.2060624389        0.0071105990
 C         -3.5463011598       -2.1587325883        0.8229692368
 C         -3.1368188971       -3.3583356978        0.2632994958
 C         -3.3162145971       -3.5877835175       -1.0922531745
 C         -3.9046042871       -2.6243290784       -1.8966600049
 C         -4.3133905997       -1.4209947567       -1.3436603239
 H         -4.7650562402       -0.6390291997       -1.9336324837
 H         -4.0433884646       -2.8048167702       -2.9509677019
 H         -2.9936488139       -4.5218267050       -1.5247425978
 H         -2.6747409497       -4.1080930293        0.8851524165
 H         -3.4136715552       -1.9477263515        1.8708313545
 H         -4.0245278538        0.9714987263        2.7765389772
 H         -2.2582521061        2.3803982232        3.4737287092
 H         -0.0729112753        3.3962248215        2.9434371074
 H          1.0521600715        2.8748286787        0.8116240315
 C          0.2428035587        1.2634433954       -1.1598817937
 H          0.2603017921        2.1854756635       -1.7598884277
 C         -0.3962013058        0.1610128075       -1.9787455343
 C         -1.5261162598        0.4699719256       -2.9126622182
 C         -0.1713168056        0.1370563199       -3.4595816499
 H         -0.0311544101       -0.8171012116       -3.9445189258
 H          0.4225478747        0.9341831736       -3.8831444994
 H         -2.3154491238       -0.2581741697       -3.0212859750
 H         -1.8638616026        1.4940289479       -2.9691916177
 H         -0.4081753652       -0.7900134237       -1.4583344952
 O          1.1286792755       -0.8651185966        0.5487119123
