  62
        -98.94016567
 C         -0.5131454441       -1.8001182598        0.8118566925
 C          0.5080144105       -2.5045383794        0.1234588788
 C          1.8885403085       -2.0830717481        0.3819956881
 C          2.1227025122       -1.0970764349        1.2649361426
 C          3.4653509650       -0.5240619854        1.6305018285
 C          4.1672669537        0.2502162129        0.4963397302
 C          5.1871940441       -0.5828879860       -0.2902984231
 H          6.0615036939        0.0371858686       -0.4991173906
 H          5.5288984335       -1.4065619207        0.3381927191
 C          4.6999009166       -1.1350524011       -1.6335583049
 H          4.7227976156       -0.3341786968       -2.3766008559
 H          5.4053617347       -1.9049850757       -1.9552521807
 C          3.2864380812       -1.7195554984       -1.6461145268
 H          3.1454316669       -2.2470350120       -2.5923861474
 H          2.5531166268       -0.9078225591       -1.6376333416
 C          2.9690901060       -2.6724845489       -0.4758056738
 H          3.8639098147       -2.8759273468        0.1108382741
 H          2.5843309896       -3.6186199757       -0.8622175390
 H          4.6919238041        1.0913427357        0.9536761084
 H          3.4157783708        0.6627080692       -0.1797145522
 H          3.2828280165        0.1499838782        2.4698245507
 H          4.1151438509       -1.3285762742        1.9813001239
 O          1.1251876795       -0.4969217155        1.9629209054
 C         -0.2127771027       -0.7742352722        1.7082489153
 O         -0.9939826257       -0.0463142762        2.3511409201
 O          0.2682834772       -3.4435947347       -0.6841971262
 C         -1.9353601260       -2.0970909633        0.3702337973
 C         -2.2539752685       -1.2495959089       -0.8431151102
 C         -2.9794400254       -1.7533338172       -1.9161560549
 C         -3.1940428431       -0.9793025667       -3.0431883561
 C         -2.6594547320        0.2935839725       -3.1397376958
 C         -1.9369551153        0.8066550005       -2.0692010128
 C         -1.7778756801        0.0499308365       -0.9196864804
 H         -1.2309041413        0.4702132933       -0.0913936575
 N         -1.3487444892        2.0792581214       -2.1124325721
 S          0.1345697312        2.3132316771       -1.3650337330
 O          0.6936665230        3.4691918128       -2.0387871879
 O          0.9531566029        1.1223740015       -1.4004902687
 C         -0.2433776706        2.7719131765        0.3115366568
 C          0.7400275887        2.6029674131        1.2645143070
 C          0.4834003041        2.9870701577        2.5699472969
 C         -0.7455372258        3.5359847336        2.8970526536
 C         -1.7200049070        3.7063467620        1.9266486804
 C         -1.4697366790        3.3249382419        0.6186329350
 H         -2.2111999728        3.4314070531       -0.1560215879
 H         -2.6780847819        4.1274925017        2.1864487934
 H         -0.9468084141        3.8243918407        3.9167598895
 H          1.2381739490        2.8442461262        3.3266551785
 H          1.6772793796        2.1549718724        0.9738502710
 H         -1.4026264164        2.5548938013       -3.0013140675
 H         -2.7900261854        0.8804733382       -4.0360118248
 H         -3.7585221584       -1.3821250195       -3.8703355922
 H         -3.3557681632       -2.7642783764       -1.8750538122
 H         -1.9359380235       -3.1474444303        0.0463978980
 C         -2.9933088209       -1.9226706009        1.4398000286
 C         -4.2609892298       -2.7173730879        1.3565918674
 C         -3.2457793959       -3.0338719364        2.4124475281
 H         -3.4621890534       -2.7772197223        3.4381023675
 H         -2.6595727329       -3.9347165258        2.3029445687
 H         -5.1831420485       -2.2437280071        1.6555668753
 H         -4.3686359886       -3.4120601788        0.5376950020
 H         -3.0554497718       -0.9106830485        1.8173504752
