  62
        -98.93447663
 C         -2.3408494307       -1.3022473096        0.2844705991
 C         -2.5982632704       -0.2477471691       -0.6208564003
 C         -3.7009110702        0.6727608510       -0.2726413899
 C         -4.3952665803        0.4723946305        0.8610667899
 C         -5.5459375501        1.2687001205        1.4222840703
 C         -6.6439914200        1.6821849113        0.4300608804
 C         -6.6635187496        3.1832428414        0.1371043712
 H         -7.6646225396        3.4606487318       -0.2003542188
 H         -6.4729610496        3.7214674109        1.0679084414
 C         -5.6719131695        3.6487946417       -0.9277466186
 H         -6.0120508295        3.3126834623       -1.9097608887
 H         -5.6849816092        4.7412468217       -0.9365689380
 C         -4.2295163696        3.1776676713       -0.7302753087
 H         -3.5771426694        3.8682302914       -1.2692850383
 H         -3.9496380896        3.2321353407        0.3210203913
 C         -3.9635071299        1.7656879115       -1.2735011994
 H         -3.0717833798        1.7801012416       -1.9079291994
 H         -4.7867110299        1.4551740720       -1.9237033196
 H         -6.5401469601        1.1168696917       -0.4948542199
 H         -7.6067479301        1.4118786413        0.8667408802
 H         -5.9715836803        0.6360966902        2.2044575999
 H         -5.1452641300        2.1539436202        1.9220921507
 O         -4.1002322906       -0.5467384900        1.7169202794
 C         -3.0895271508       -1.4484498901        1.4569090590
 O         -2.9568272110       -2.3313792005        2.3272921686
 O         -1.9507497203       -0.0535389887       -1.6865450702
 C         -1.2718455609       -2.3623167798        0.0656300487
 C          0.1081900492       -1.8615956703        0.4210600490
 C          0.8397949790       -2.4620476810        1.4390176787
 C          2.1151142291       -2.0204133114        1.7446093590
 C          2.6848190894       -0.9714661512        1.0454630796
 C          1.9614573196       -0.3630361805        0.0281087199
 C          0.6849241495       -0.8122023701       -0.2798771204
 H          0.1233822596       -0.3333897395       -1.0686067102
 N          2.5202296198        0.7193273297       -0.6739772596
 S          4.0605650098        0.5401730797       -1.3159736096
 O          4.1320279001        1.4875358702       -2.4068113891
 O          4.3416220695       -0.8387355702       -1.6431166003
 C          5.1380819799        1.0858151488       -0.0070366992
 C          6.1404994297        0.2532963583        0.4509643904
 C          6.9750370397        0.7024912176        1.4626597207
 C          6.7943483200        1.9700933474        1.9943673813
 C          5.7849612102        2.7953239379        1.5209836617
 C          4.9478472202        2.3525781386        0.5093388714
 H          4.1545047503        2.9633363590        0.1115617017
 H          5.6478876104        3.7806987477        1.9365533721
 H          7.4442124100        2.3174361668        2.7819862615
 H          7.7605542596        0.0627122973        1.8315296204
 H          6.2398358395       -0.7260704115        0.0106007699
 H          1.8913539500        1.1170124702       -1.3572921294
 H          3.6774995794       -0.6232310015        1.2796585298
 H          2.6716622889       -2.4967718019        2.5372292888
 H          0.3971470088       -3.2741634111        1.9973854383
 H         -1.5202079711       -3.1724835301        0.7642401982
 C         -1.2852125710       -2.9289185191       -1.3419956316
 C         -0.7071284513       -4.2891593191       -1.5836240523
 C         -2.1892574712       -4.0793566487       -1.6613213123
 H         -2.6668120312       -4.1057215181       -2.6292951723
 H         -2.8021165013       -4.4696092090       -0.8615675125
 H         -0.1615636412       -4.4610003087       -2.4988932023
 H         -0.3155446314       -4.8249421996       -0.7321828725
 H         -1.1463629407       -2.1795783887       -2.1100963512
