  62
        -98.93467067
 C         -1.7394716723       -0.4544985540        1.1448445197
 C         -1.9663318906       -0.2326532111       -0.2341909134
 C         -3.3603423725       -0.3729194484       -0.7007068820
 C         -4.3320049598       -0.6751386698        0.1792752668
 C         -5.8134748222       -0.9213388625       -0.0165865276
 C         -6.5150310209       -0.4873072232       -1.3012177933
 C         -6.5815986532        1.0240879086       -1.5170750223
 H         -7.0172506646        1.2086120991       -2.5015364277
 H         -7.2545993543        1.4530361732       -0.7702433544
 C         -5.2501771832        1.7647655074       -1.4166503621
 H         -5.4440091894        2.8254581448       -1.5984802132
 H         -4.8594156909        1.6810189177       -0.4003177562
 C         -4.1726717176        1.3144355782       -2.4014398215
 H         -3.3448946690        2.0252141226       -2.3293646602
 H         -4.5642695657        1.3583485812       -3.4195688127
 C         -3.5948953898       -0.0905901890       -2.1564872807
 H         -2.6153661368       -0.1399054335       -2.6407001728
 H         -4.2203031590       -0.8604441904       -2.6019419355
 H         -7.5422951213       -0.8557053798       -1.2327876180
 H         -6.0636036283       -0.9737980249       -2.1607564631
 H         -5.9552960940       -2.0009457722        0.1060702141
 H         -6.3072431123       -0.4476901185        0.8378582011
 O         -4.0651254242       -0.8640024163        1.5057049597
 C         -2.7875542776       -0.7398229440        2.0208748009
 O         -2.7173578806       -0.8968748217        3.2564073183
 O         -1.0600334931        0.0621427048       -1.0541661869
 C         -0.3575058171       -0.3136015515        1.7585213144
 C          0.3179075774        0.9284522203        1.2311742912
 C         -0.3159043585        2.1568413471        1.4052426363
 C          0.2581801806        3.3214104302        0.9364605009
 C          1.4902484820        3.2907700512        0.3060292787
 C          2.1341768026        2.0727968606        0.1341399922
 C          1.5446551583        0.9012280713        0.5891046787
 H          2.0502845297       -0.0342154478        0.4208108647
 N          3.3769228162        2.0001174522       -0.5116860008
 S          4.5474130211        0.9520824105        0.0570412105
 O          4.4804481050        0.8060037457        1.4930276961
 O          5.7915700219        1.4757072674       -0.4670683555
 C          4.2053301414       -0.6050436572       -0.7346400016
 C          4.3712121742       -1.7717707480       -0.0149929379
 C          4.1516067885       -2.9864794730       -0.6455816717
 C          3.7719725942       -3.0123343325       -1.9788628225
 C          3.6094441102       -1.8313360112       -2.6869348148
 C          3.8315374981       -0.6139800734       -2.0635737374
 H          3.7114368405        0.3218286831       -2.5832649029
 H          3.3091211394       -1.8557170394       -3.7220452156
 H          3.5977897251       -3.9583999401       -2.4668776716
 H          4.2752199159       -3.9058369162       -0.0951508470
 H          4.6558799856       -1.7049459849        1.0231644529
 H          3.7674788591        2.8869768571       -0.7939974122
 H          1.9445026326        4.2008174935       -0.0558627590
 H         -0.2515275518        4.2640903243        1.0695534934
 H         -1.2756199910        2.1821261258        1.9047866813
 H         -0.5390686925       -0.1594271050        2.8358959775
 C          0.5061126086       -1.5605499290        1.6392505060
 C         -0.1118429961       -2.9252459252        1.5917188597
 C          0.5702335943       -2.3690938543        0.3797462655
 H          1.5228210527       -2.7867259931        0.0884766986
 H         -0.0351993834       -2.0436133351       -0.4507165397
 H          0.3704492975       -3.7233012169        2.1357860589
 H         -1.1905739061       -2.9859095026        1.5938877414
 H          1.4261634111       -1.4695102812        2.2099563731
