  62
        -98.93444642
 C          1.9737938092       -0.0113252107        0.6058325285
 C          2.7978310293        0.6038000265       -0.3660411196
 C          4.1393474931        0.0138518919       -0.5583759753
 C          4.5046813922       -1.0649198061        0.1570099661
 C          5.7705568048       -1.8965229278        0.1388194088
 C          7.0270321869       -1.3937690769       -0.5671659001
 C          7.6861373248       -0.1803579838        0.0880605551
 H          8.1186807319       -0.4935077650        1.0417359601
 H          8.5043012645        0.1527519506       -0.5542518950
 C          6.7609708264        1.0012121804        0.3682150437
 H          5.9929589702        0.7032008808        1.0849779333
 H          7.3563601525        1.7861992036        0.8425754542
 C          6.0859389545        1.6079413612       -0.8601653425
 H          6.8426044898        1.8768493098       -1.5997888034
 H          5.5886549701        2.5279660976       -0.5414088883
 C          5.0282000010        0.7220694673       -1.5403999036
 H          4.3749866993        1.3709204196       -2.1311533098
 H          5.4871904698        0.0122808179       -2.2243219824
 H          7.7484235181       -2.2151047426       -0.5400900854
 H          6.8169117980       -1.1954440158       -1.6140216080
 H          6.0074816801       -2.1004157259        1.1880692585
 H          5.4860264337       -2.8578177607       -0.3034576110
 O          3.6617362440       -1.6416951771        1.0647111960
 C          2.4012579474       -1.1357069046        1.3142248992
 O          1.7618923487       -1.7609199985        2.1851931453
 H         -1.6339135577       -0.9098164163        1.6478188805
 C         -1.5328092141       -0.8326589615        0.5735354470
 C         -0.4417595599       -0.1651721447        0.0371925653
 C         -0.3190187674       -0.0902509634       -1.3469184249
 C         -1.2640596968       -0.6773695252       -2.1682247015
 C         -2.3513312301       -1.3434568678       -1.6293790569
 C         -2.4844699024       -1.4200518474       -0.2499865997
 N         -3.6123207196       -2.0663521364        0.2980205863
 S         -5.0922699321       -1.3952494253       -0.1246091647
 O         -6.0197523861       -1.8275879504        0.8957818555
 O         -5.4133001678       -1.7679459582       -1.4783254800
 C         -4.8062694875        0.3615677126       -0.0178344669
 C         -4.8113329656        0.9484187492        1.2322276391
 C         -4.4894559794        2.2911868119        1.3440023429
 C         -4.1553402673        3.0170780747        0.2107605362
 C         -4.1574348195        2.4137929666       -1.0369541368
 C         -4.4853126560        1.0726631682       -1.1564593332
 H         -4.5010423193        0.5684771918       -2.1084832521
 H         -3.8977101625        2.9815125711       -1.9158732141
 H         -3.8882437016        4.0576594321        0.3017479498
 H         -4.4904231596        2.7648911442        2.3126456760
 H         -5.0772673896        0.3499921478        2.0892012434
 H         -3.5590112072       -2.1771924745        1.3008305607
 H         -3.1021919091       -1.7997407171       -2.2542055192
 H         -1.1546305732       -0.6146755548       -3.2403438431
 H          0.5217755937        0.4393210181       -1.7680621326
 C          0.5747438305        0.4752001524        0.9462067846
 H          0.3869311195        0.1023432487        1.9654629906
 C          0.4576747519        1.9939145205        0.9890025333
 C         -0.4153831037        2.7857351830        0.0663213497
 C         -0.8044510917        2.6219195429        1.5023988802
 H         -0.7283407717        3.4704701135        2.1649024165
 H         -1.6314172169        1.9620096398        1.7194267637
 H         -0.0444880643        3.7423920377       -0.2677158819
 H         -0.9899772740        2.2567459429       -0.6774586452
 H          1.3890007678        2.4633343265        1.2868416516
 O          2.4521655742        1.5943592363       -1.0580841575
