  62
        -98.94785940
 C          1.0081665642        0.9618267992        0.7156094528
 C          1.6620356577        0.8665997885       -0.5361372976
 C          2.3432585294       -0.4058886423       -0.8026786200
 C          2.2537164027       -1.4122163461        0.0846087954
 C          2.8511080408       -2.7851516639       -0.0690369496
 C          4.3273733987       -2.8776194930        0.3411709707
 C          5.3145392492       -2.2183346336       -0.6225356335
 H          6.3143321272       -2.5455500923       -0.3303308977
 H          5.1337238474       -2.5860759920       -1.6331075762
 C          5.2758237303       -0.6838446715       -0.6168905793
 H          4.7641086270       -0.3353287644        0.2829836330
 H          6.2952782456       -0.2937546628       -0.5782313967
 C          4.5994522730       -0.0635961269       -1.8395654193
 H          5.1768983527       -0.2970964588       -2.7368847628
 H          4.5938540294        1.0222585115       -1.7155945885
 C          3.1513371872       -0.5214312428       -2.0589770264
 H          2.6899919762        0.1286172111       -2.8069383094
 H          3.1297390847       -1.5454307598       -2.4327596695
 H          4.4408305929       -2.4389736514        1.3350575636
 H          4.5781506920       -3.9383767020        0.4142119873
 H          2.2734004616       -3.4509722687        0.5762668279
 H          2.7336633206       -3.1186210046       -1.1010288880
 O          1.5645266924       -1.3010760010        1.2518774219
 C          0.9346838357       -0.1147443941        1.5977297962
 O          0.3455489104       -0.1482728284        2.6971644131
 H         -1.4423817317        0.3774156278        0.2529168204
 C         -1.6403998323        1.3174006316       -0.2412307456
 C         -0.8618095130        2.4237162316        0.0748236340
 C         -1.1382048179        3.6307747115       -0.5523355170
 C         -2.1473004808        3.7089135296       -1.4975487032
 C         -2.8853830811        2.5926064752       -1.8455387949
 C         -2.6257972949        1.3827733460       -1.2105215496
 N         -3.3569246859        0.2253116878       -1.5154893461
 S         -2.6131065146       -1.2717167818       -1.4411198086
 O         -1.2303252721       -1.2180721799       -1.8564040909
 O         -3.4737369229       -2.1317511081       -2.2284234300
 C         -2.7381811642       -1.7487413699        0.2684541349
 C         -1.6630265506       -2.3686735089        0.8721392896
 C         -1.7667431559       -2.7546291695        2.1984993442
 C         -2.9429964285       -2.5195006971        2.8925307518
 C         -4.0183274069       -1.9043327738        2.2693941908
 C         -3.9197322892       -1.5148168616        0.9435539719
 H         -4.7313311135       -1.0292831008        0.4278639497
 H         -4.9303895389       -1.7228017155        2.8149372249
 H         -3.0174343416       -2.8144139803        3.9272989492
 H         -0.9242650900       -3.2194515456        2.6848118827
 H         -0.7589106219       -2.5157688824        0.3009409127
 H         -3.9843859767        0.3037803558       -2.3024410477
 H         -3.6517979111        2.6513141902       -2.6031843046
 H         -2.3492212267        4.6507043645       -1.9850125247
 H         -0.5563422117        4.5058265644       -0.3136617869
 C          0.2471310590        2.2248366407        1.0804408462
 H         -0.2109371479        2.0321615247        2.0617814954
 C          1.1842555779        3.4073844326        1.1985138735
 C          0.8464898651        4.5484920951        2.1091163983
 C          1.9482557673        3.6003680749        2.4728237714
 H          2.9694798796        3.9457969267        2.4143802224
 H          1.7725385120        2.8902836138        3.2679929807
 H          1.1138935547        5.5487900545        1.8035990365
 H         -0.0765757619        4.4877021225        2.6653540545
 H          1.6976912231        3.6253599872        0.2692880953
 O          1.6807377888        1.7942215839       -1.3871983878
