  62
        -98.94636162
 C          1.3175024058        1.7301491647        0.0520434695
 C          1.2887798659        0.6462003571       -0.8613185162
 C          2.4942828375       -0.1991509876       -0.8898056330
 C          3.5349093834        0.1033943400       -0.0933974302
 C          4.8302323896       -0.6537235172       -0.0367402306
 C          4.8099029907       -1.7416721610        1.0439318739
 C          3.5855082807       -2.6540826822        0.9770954971
 H          3.7059486779       -3.4207030241        1.7460794462
 H          2.6897239366       -2.0843096100        1.2375021065
 C          3.3688029765       -3.3258739973       -0.3856352349
 H          3.1180309316       -4.3757162782       -0.2191055426
 H          4.2911457283       -3.2992868246       -0.9678254199
 C          2.2241002829       -2.7211089764       -1.2010034935
 H          1.9740354400       -3.4192241538       -2.0055854028
 H          1.3483810512       -2.6303857760       -0.5526988255
 C          2.5061508666       -1.3574845747       -1.8475004704
 H          3.4536888679       -1.3992108842       -2.3902211602
 H          1.7079238087       -1.1543664303       -2.5679165312
 H          5.7169475631       -2.3414841716        0.9453747573
 H          4.8258158991       -1.2595986280        2.0241647099
 H          5.6270913235        0.0563681831        0.1929069101
 H          5.0247340341       -1.0991803786       -1.0105955799
 O          3.5223651209        1.1460177270        0.7766052246
 C          2.4152168118        1.9715647678        0.8779854646
 O          2.5351092824        2.8863575805        1.7208037423
 O          0.3222551724        0.4023422840       -1.6278219130
 C          0.1678472571        2.7106289287        0.1573655466
 C         -1.0811556850        2.1377894832        0.7884540855
 C         -2.1810202007        2.9661515515        1.0028900494
 C         -3.3237004039        2.4819245113        1.6094579914
 C         -3.4056866837        1.1561865985        1.9986972556
 C         -2.3199379133        0.3190319663        1.7796239495
 C         -1.1656951392        0.8143541609        1.1870203436
 H         -0.3323674575        0.1447378638        1.0430244486
 N         -2.3639592608       -1.0356591742        2.1503059200
 S         -1.8042981640       -2.1767562429        1.0623565521
 O         -2.4496762570       -3.4070730347        1.4782252128
 O         -0.3638709509       -2.2063678643        1.0639174042
 C         -2.4417697663       -1.6920013433       -0.5325858273
 C         -1.6417938351       -1.8045440217       -1.6489946969
 C         -2.1580578932       -1.4460062696       -2.8841913640
 C         -3.4591220145       -0.9818291223       -2.9813478276
 C         -4.2570243142       -0.8872000518       -1.8512530693
 C         -3.7480948999       -1.2493626859       -0.6156059058
 H         -4.3537170074       -1.1928393915        0.2739084894
 H         -5.2714099434       -0.5302156980       -1.9287191939
 H         -3.8544266061       -0.6942615762       -3.9430029001
 H         -1.5342861438       -1.5201075451       -3.7602681891
 H         -0.6288107786       -2.1509732324       -1.5373414301
 H         -3.2338959299       -1.3309521315        2.5697831748
 H         -4.2963393520        0.7740881255        2.4740392560
 H         -4.1622115783        3.1396646910        1.7785264119
 H         -2.1297310969        3.9990691264        0.6978790051
 H          0.5270362664        3.5143635689        0.8178546443
 C         -0.1552690906        3.3136553468       -1.2012061140
 C         -0.4553204192        4.7747621511       -1.3399740262
 C          0.8430816247        4.2257406923       -1.8470639870
 H          0.9994380192        4.1488850676       -2.9123211930
 H          1.7424054819        4.4471639332       -1.2895870534
 H         -1.1992223865        5.0806598901       -2.0596665219
 H         -0.4190980668        5.3869194959       -0.4510745729
 H         -0.6818716560        2.6224467441       -1.8479310334
