  62
        -98.94386382
 C         -1.6673625335       -1.4324136115        0.5639056752
 C         -2.6544025210       -1.0604197839       -0.3814584211
 C         -3.4796603211        0.1034861599       -0.0175336173
 C         -3.2028369195        0.7936537548        1.1027516944
 C         -3.9239217697        2.0310159557        1.5518585416
 C         -3.2697876810        3.3036156113        0.9956550168
 C         -2.9970537276        3.2536828336       -0.5075143806
 H         -2.5673705277        4.2168319609       -0.7915066688
 H         -2.2461891065        2.4865484103       -0.7098179887
 C         -4.2367900567        2.9813365300       -1.3702328638
 H         -5.1421069474        3.1806067265       -0.7955062848
 H         -4.2332827104        3.6704526715       -2.2173104718
 C         -4.3034648877        1.5664396560       -1.9466947496
 H         -3.3599967715        1.3266995946       -2.4431351008
 H         -5.0883455995        1.5451428143       -2.7074935503
 C         -4.6146772729        0.4529571372       -0.9391585142
 H         -5.5058133365        0.7157167035       -0.3650657091
 H         -4.8290011505       -0.4561983189       -1.5084057103
 H         -3.9210921119        4.1500717171        1.2213032572
 H         -2.3207010807        3.4611982057        1.5130661044
 H         -4.9614373585        1.9741939815        1.2275690501
 H         -3.8973490542        2.0665559785        2.6424618565
 O         -2.1898649218        0.4573175976        1.9426079639
 C         -1.4149322248       -0.6634557675        1.7041559065
 O         -0.5378662294       -0.8705044925        2.5673433649
 H          1.6858942873       -2.0869432752        1.3744028371
 C          1.6416874661       -1.8754064410        0.3146069459
 C          0.4683642511       -2.1311692098       -0.3795477006
 C          0.4126962320       -1.8225725129       -1.7346843926
 C          1.5102620871       -1.2714054730       -2.3712367493
 C          2.6755377308       -1.0035682946       -1.6725700310
 C          2.7359600713       -1.3040819303       -0.3187118037
 N          3.8993110700       -0.9948345139        0.4123539684
 S          4.4643529495        0.5737677282        0.2589131587
 O          5.2847566996        0.6724678695       -0.9227249417
 O          5.1301498604        0.8677793966        1.5087168118
 C          3.0159601971        1.6009676014        0.0631797119
 C          2.9562630984        2.4853416001       -0.9947493952
 C          1.8358833934        3.2876834702       -1.1375958555
 C          0.7934649005        3.1855772174       -0.2296532337
 C          0.8643469529        2.2864537698        0.8229354940
 C          1.9867962017        1.4894826634        0.9772789449
 H          2.0513445069        0.7880281506        1.7940814341
 H          0.0497602897        2.1871738851        1.5239567682
 H         -0.0799862865        3.8081866253       -0.3410048629
 H          1.7759773792        3.9865674965       -1.9562026631
 H          3.7852044607        2.5244889655       -1.6826388616
 H          3.8371903589       -1.2503008666        1.3877800823
 H          3.5326640144       -0.5566641766       -2.1501767707
 H          1.4557567380       -1.0347660371       -3.4228768518
 H         -0.5066518976       -1.9894467195       -2.2744512544
 C         -0.7383117284       -2.6252087896        0.3797149260
 H         -0.4043346503       -2.9025383777        1.3889596779
 C         -1.3816682813       -3.8386590589       -0.2544435907
 C         -0.7105419508       -5.1689210917       -0.0962014791
 C         -1.9920831953       -4.8848231208        0.6268419651
 H         -2.8942698216       -5.3751855121        0.2936003503
 H         -1.9511393257       -4.7287544127        1.6953512064
 H         -0.7299016529       -5.8572906093       -0.9269296846
 H          0.2006820856       -5.2049563027        0.4821859011
 H         -1.8795718302       -3.6339908698       -1.1916299103
 O         -2.8618924502       -1.6520591497       -1.4720232557
