  62
        -98.94826859
 C          1.3177496554        1.5604670969        0.2219969869
 C          1.6391193186        0.5884136292        1.2002572981
 C          2.9134444280       -0.1121827904        1.0158064139
 C          3.7018826764        0.2024152993       -0.0284164427
 C          5.0614198342       -0.3746911682       -0.3175019052
 C          5.0335448329       -1.6975374795       -1.0941784046
 C          4.5544125235       -2.9076008813       -0.2918907685
 H          4.7833075113       -3.7972488715       -0.8818974832
 H          5.1227376529       -2.9767375459        0.6363034591
 C          3.0521648111       -2.8978092346        0.0219837711
 H          2.6213032181       -3.8789596556       -0.1909655099
 H          2.5394708373       -2.1899502813       -0.6340292471
 C          2.6997448463       -2.5621200855        1.4709406843
 H          3.0639996601       -3.3535693074        2.1304826182
 H          1.6087123522       -2.5371739165        1.5421143350
 C          3.2529365276       -1.2190066810        1.9669729775
 H          2.7865120041       -0.9898976869        2.9284103714
 H          4.3317743139       -1.2872312457        2.1080374605
 H          6.0509154662       -1.8951562578       -1.4398592118
 H          4.3999136279       -1.5731133487       -1.9754719808
 H          5.6044642705       -0.5132166503        0.6178686013
 H          5.5896457621        0.3665898836       -0.9211972646
 O          3.3524307981        1.1342330907       -0.9543706678
 C          2.1344705325        1.7974156895       -0.8829329586
 O          1.9137684446        2.5630655947       -1.8406162576
 O          0.8966888782        0.3259910441        2.1852705340
 C         -0.0068326890        2.2927645929        0.3320672932
 C         -0.9512937849        1.8172309940       -0.7454578889
 C         -1.7487787990        2.6613805941       -1.5072267578
 C         -2.6152574326        2.1377967322       -2.4520163009
 C         -2.7337895176        0.7715672458       -2.6325083805
 C         -1.9449851943       -0.0815564798       -1.8690335428
 C         -1.0537159427        0.4479637754       -0.9510130751
 H         -0.4244400043       -0.2247006270       -0.3892296814
 N         -2.0406569362       -1.4768904863       -1.9877643495
 S         -1.9435969035       -2.3971694268       -0.5889758801
 O         -0.5724201584       -2.5380119283       -0.1733650772
 O         -2.6259438670       -3.6292419711       -0.9278807567
 C         -2.9007729374       -1.4898827291        0.6133143507
 C         -4.2673705581       -1.4389320254        0.4126411058
 C         -5.0500797040       -0.7022031254        1.2851447911
 C         -4.4544780757       -0.0258536153        2.3393590215
 C         -3.0839000982       -0.0924651749        2.5308112865
 C         -2.2937816783       -0.8304909038        1.6621352831
 H         -1.2235728909       -0.8836597177        1.7921349212
 H         -2.6134436977        0.4301210802        3.3486639403
 H         -5.0608078819        0.5546441144        3.0166853058
 H         -6.1172493336       -0.6540060541        1.1403158274
 H         -4.6929639366       -1.9874009738       -0.4120916498
 H         -2.7760021539       -1.8020209917       -2.5981194309
 H         -3.4216865802        0.3669725877       -3.3588716449
 H         -3.2197113446        2.8049420224       -3.0474172833
 H         -1.6870697322        3.7279471763       -1.3676507606
 H         -0.4305905114        1.9737490821        1.2971333496
 C          0.1869123716        3.7930073026        0.3611695691
 C         -0.7989791119        4.6620546250        1.0818910313
 C          0.5686563486        4.4470062815        1.6544462350
 H          1.2755969176        5.2625839774        1.6300284017
 H          0.6679087547        3.8111437428        2.5221791500
 H         -1.0316467855        5.6310440606        0.6668757776
 H         -1.6323962234        4.1764215300        1.5663717614
 H          0.6432553792        4.1739863247       -0.5449128828
