  62
        -98.94880995
 C          1.1566339616        1.6347977587        0.1289893546
 C          1.6901568243        0.8160533961        1.1520819043
 C          2.9175464178        0.0869016582        0.8164923318
 C          3.4465026929        0.2047956487       -0.4148748027
 C          4.7025217478       -0.4620651187       -0.9060155858
 C          4.4940182465       -1.9061677686       -1.3815727610
 C          4.2811195187       -2.9340896898       -0.2696249945
 H          4.3882707345       -3.9213394507       -0.7236254643
 H          5.0696972476       -2.8307171964        0.4769652878
 C          2.9088442128       -2.8585677705        0.4138775659
 H          2.5026658641       -3.8673330325        0.5245628523
 H          2.2046363387       -2.3156888269       -0.2219484709
 C          2.9236775175       -2.2256021655        1.8054229954
 H          1.8926177426       -2.1811684265        2.1660256962
 H          3.4906654390       -2.8618878182        2.4894376419
 C          3.5132417305       -0.8105094099        1.8594719333
 H          3.2797021701       -0.3816311756        2.8374737565
 H          4.5965249341       -0.8534195366        1.7465626868
 H          5.3826373947       -2.1945647994       -1.9483337061
 H          3.6405224991       -1.9311206863       -2.0637233254
 H          5.0582894126        0.1313927433       -1.7510895035
 H          5.4610566904       -0.4414239927       -0.1227019477
 O          2.8934779318        0.9878104401       -1.3788401755
 C          1.7313994333        1.7082118096       -1.1396282375
 O          1.3259869802        2.3668032270       -2.1166195430
 H         -0.5090316828       -0.0398314997       -0.5880484121
 C         -1.2896237361        0.6358650060       -0.8996945176
 C         -1.2296351169        1.9695872535       -0.5232495080
 C         -2.2271311402        2.8267236724       -0.9732514871
 C         -3.2426105050        2.3527168479       -1.7856273280
 C         -3.3040495985        1.0185336809       -2.1460487512
 C         -2.3136912092        0.1526235251       -1.6976966605
 N         -2.3286142598       -1.2101926955       -2.0288563218
 S         -1.7588209198       -2.3252334528       -0.9209221476
 O         -0.3182993067       -2.3138398444       -0.8910570889
 O         -2.3696573277       -3.5737006229       -1.3266756791
 C         -2.4422612292       -1.7969428839        0.6401810878
 C         -3.8156475342       -1.8550178805        0.7830777575
 C         -4.3900973192       -1.3946097100        1.9558467542
 C         -3.5860587359       -0.8782745613        2.9613440104
 C         -2.2097315449       -0.8347474043        2.8070616429
 C         -1.6296833091       -1.2995755985        1.6371372411
 H         -0.5610369964       -1.2651255391        1.4932811558
 H         -1.5730623577       -0.4302858032        3.5780357031
 H         -4.0331108736       -0.5090067399        3.8708269477
 H         -5.4601939286       -1.4328080784        2.0807157012
 H         -4.4070382365       -2.2687451949       -0.0175405608
 H         -3.1577911156       -1.5298751606       -2.5065649757
 H         -4.0998137139        0.6508772846       -2.7752981298
 H         -4.0043129180        3.0316563769       -2.1374701357
 H         -2.2041398661        3.8675214317       -0.6946939109
 C         -0.1172663669        2.4115284107        0.3971308354
 H         -0.4097438962        2.1438868643        1.4247413790
 C          0.1446900559        3.9031975881        0.3416669432
 C         -0.6038962011        4.8410007084        1.2400441302
 C          0.8444393392        4.5556236917        1.4952853331
 H          1.5708147223        5.3271992080        1.2888432731
 H          1.1032067774        3.9271803205        2.3350463749
 H         -0.8719888914        5.8149551156        0.8590626148
 H         -1.3282593224        4.4148108612        1.9174975658
 H          0.4015832302        4.2411802342       -0.6560081238
 O          1.1671055905        0.7036460009        2.2938982332
