  62
        -98.94361433
 C         -1.8266360795        0.3226548598        0.2909067659
 C         -2.9788491738        0.5828513124        1.0699253729
 C         -4.2518800823        0.5996886623        0.3409963396
 C         -4.2610117007        0.4017288764       -0.9900453746
 C         -5.4758914702        0.4185441498       -1.8778661258
 C         -6.2367623659       -0.9137349517       -1.9215319310
 C         -7.0270446911       -1.2537903504       -0.6572998738
 H         -7.6673624390       -0.4116846217       -0.3927798627
 H         -7.6795082598       -2.0938420727       -0.9036602910
 C         -6.1581331978       -1.6409663094        0.5475233705
 H         -5.1516179923       -1.8922578039        0.2053932811
 H         -6.5683792082       -2.5363373654        1.0199577131
 C         -6.0577480295       -0.5645757866        1.6283573241
 H         -5.3903218351       -0.9284817388        2.4137322473
 H         -7.0413520890       -0.3981881188        2.0732899583
 C         -5.5132889762        0.7806217831        1.1302688166
 H         -6.2669425817        1.2939178489        0.5333846725
 H         -5.2753187163        1.3977868275        2.0002672741
 H         -6.9369628090       -0.8612421528       -2.7584346495
 H         -5.5253126914       -1.7151407592       -2.1331526227
 H         -6.1507992645        1.2141348142       -1.5608002496
 H         -5.1204004971        0.6450072072       -2.8853632752
 O         -3.1274370585        0.1771661848       -1.7063397824
 C         -1.8869729052        0.1148344260       -1.0872521860
 O         -0.9391196957       -0.1216301747       -1.8590488247
 O         -2.9435507809        0.7997201676        2.3114438308
 C         -0.4730235484        0.2726701008        0.9739621720
 C          0.4626788725        1.2956770573        0.3791464971
 C         -0.0070596143        2.5846023078        0.1377861171
 C          0.8183814928        3.5477037026       -0.4074286881
 C          2.1372291642        3.2531793270       -0.7063997946
 C          2.6214883639        1.9761671092       -0.4552885211
 C          1.7848202998        1.0060680618        0.0811041539
 H          2.1809912836        0.0221334025        0.2677544368
 N          3.9490636663        1.6421522468       -0.7572110471
 S          4.8234628455        0.6507844332        0.2654423066
 O          4.4495798816        0.8446593794        1.6468481785
 O          6.2076381804        0.9251973888       -0.0588557771
 C          4.4346990079       -1.0079124688       -0.2510803938
 C          4.3681964520       -2.0029350171        0.7040672071
 C          4.1130103772       -3.3045931555        0.3013857628
 C          3.9299123975       -3.5868293599       -1.0433482546
 C          4.0024331330       -2.5763945839       -1.9902035148
 C          4.2617004532       -1.2738438979       -1.5947979291
 H          4.3201480538       -0.4659113440       -2.3048305429
 H          3.8557056446       -2.7988832187       -3.0349156710
 H          3.7280302411       -4.5995593243       -1.3550195720
 H          4.0565404946       -4.0917624046        1.0366449582
 H          4.5057295720       -1.7364772900        1.7400763990
 H          4.5099770938        2.3984765330       -1.1208554301
 H          2.7847798265        4.0048461842       -1.1318112638
 H          0.4354470656        4.5395050439       -0.5961546683
 H         -1.0351042884        2.8195035880        0.3783521924
 H         -0.6624256586        0.5561794513        2.0207531994
 C          0.0745419060       -1.1391649502        0.9447338766
 C          0.9781254388       -1.6272135232        2.0360656747
 C         -0.4304309500       -2.1305025759        1.9484026099
 H         -0.5958907832       -3.1486892113        1.6301661615
 H         -1.1478808663       -1.7774401580        2.6748300837
 H          1.7794429324       -2.3011795606        1.7736095859
 H          1.2272073568       -0.9355597348        2.8270141664
 H          0.2533571150       -1.4934392190       -0.0645765332
