  62
        -98.93862685
 C         -2.7989628691       -0.1285250534        0.0796456580
 C         -2.1306522166       -0.8713700861        1.0834259497
 C         -1.7989904088       -2.2632032941        0.7407512083
 C         -2.1284318070       -2.7492800791       -0.4680775709
 C         -1.8241465247       -4.1375981560       -0.9504823359
 C         -0.4888443217       -4.2035977346       -1.7036373729
 C          0.6824510710       -3.5499183181       -0.9695710154
 H          1.5762384202       -3.7253306252       -1.5737621301
 H          0.5344719161       -2.4673864448       -0.9394112970
 C          0.9201122588       -4.0728828866        0.4540644129
 H          1.9934742343       -4.2186757301        0.5942830919
 H          0.4424093696       -5.0457556939        0.5779884880
 C          0.4472066630       -3.1277191378        1.5606133022
 H          0.7984512717       -2.1150041490        1.3436855139
 H          0.9030860606       -3.4454474029        2.5023169104
 C         -1.0701526150       -3.0680458022        1.7796902355
 H         -1.4758472523       -4.0797006741        1.8435416873
 H         -1.2521796113       -2.5624747431        2.7326130183
 H         -0.2582493594       -5.2536947561       -1.8959857507
 H         -0.6076350487       -3.6996999746       -2.6658401401
 H         -1.8042095047       -4.8132990342       -0.0972736565
 H         -2.6242500989       -4.4452780474       -1.6264841646
 O         -2.7733686994       -2.0096366335       -1.4069194580
 C         -3.0938517916       -0.6856186535       -1.1678479235
 O         -3.6533054577       -0.1143646642       -2.1265458337
 H         -0.6262309526        1.1484324286        1.0953654618
 C         -0.7244082988        1.8974577022        0.3233885498
 C         -1.9784608546        2.1689452808       -0.2062131654
 C         -2.0812707908        3.1403933727       -1.1937997344
 C         -0.9541970173        3.8025303018       -1.6526901618
 C          0.2991298823        3.4947735149       -1.1524523936
 C          0.4056965202        2.5359140423       -0.1558082165
 N          1.6954298449        2.1363504181        0.3022400227
 S          2.2699300591        0.9467944743       -0.7686466324
 O          2.5172047914        1.5896828163       -2.0350047631
 O          1.3661803651       -0.1825193074       -0.7921164724
 C          3.8169585732        0.4850875857       -0.0127753551
 C          4.8447586246        1.4087683745       -0.0091107495
 C          6.0447531849        1.0705610340        0.5951542193
 C          6.1955342487       -0.1775177025        1.1819008650
 C          5.1547549200       -1.0933834023        1.1690913624
 C          3.9507492085       -0.7609991829        0.5674507734
 H          3.1154946538       -1.4425127521        0.5297272435
 H          5.2740283685       -2.0634889183        1.6239917100
 H          7.1308946391       -0.4390091180        1.6509465908
 H          6.8571414183        1.7790646488        0.6064952840
 H          4.6833842844        2.3621811808       -0.4835867977
 H          1.6159468531        1.6936910943        1.2114525533
 H          1.1904287183        3.9626611211       -1.5369218112
 H         -1.0507900994        4.5487125291       -2.4267632587
 H         -3.0483840572        3.3529788723       -1.6261408589
 C         -3.1611535005        1.3430408188        0.2316084287
 H         -3.9755329201        1.5191196421       -0.4886366640
 C         -3.6843623342        1.7012885523        1.6149716541
 C         -2.9577052189        2.6024740485        2.5636996113
 C         -4.1955628253        3.0876379788        1.8754052448
 H         -5.1001484291        3.2062478436        2.4520356952
 H         -4.0743245891        3.8147385876        1.0864162248
 H         -2.0096651872        3.0138079464        2.2541939549
 H         -3.0047570320        2.3616108580        3.6146558333
 H         -4.2423365772        0.8850862479        2.0612420029
 O         -1.8166155691       -0.4174668341        2.2155844467
