  62
        -98.93998409
 C         -1.1412540297       -1.2303779253        0.5767161600
 C         -1.7827486240       -0.8843184587       -0.6340926264
 C         -2.6562505247        0.3088858407       -0.6044791646
 C         -2.7247873493        1.0382330692        0.5241342061
 C         -3.5819234747        2.2429005754        0.8125435646
 C         -5.0527578215        1.8734040135        1.0578673313
 C         -5.6447295275        0.9030447372        0.0397438136
 H         -5.0754310828       -0.0278195432        0.0584549803
 H         -6.6626178758        0.6661703773        0.3605375260
 C         -5.7162754683        1.4269327784       -1.3930947867
 H         -6.2717750408        0.6894166766       -1.9780243195
 H         -6.2878994677        2.3574673956       -1.4071037908
 C         -4.3734722508        1.6659952827       -2.0895833241
 H         -3.9326211615        2.6123729133       -1.7877115898
 H         -4.5742889575        1.7482326993       -3.1617423200
 C         -3.3619395750        0.5372637378       -1.9197998073
 H         -3.8395627147       -0.4141679359       -2.1803898160
 H         -2.5658855455        0.6661632327       -2.6631504964
 H         -5.6402868118        2.7931019938        1.0718107141
 H         -5.1278799954        1.4103146869        2.0448205402
 H         -3.5046644221        2.9685447578        0.0084638666
 H         -3.1841894471        2.7002208330        1.7212212625
 O         -1.9976844750        0.7241524416        1.6350759498
 C         -1.2047934453       -0.3997795770        1.6965184775
 O         -0.6075177820       -0.5539582028        2.7824412121
 O         -1.6639793492       -1.5393268801       -1.7018613441
 C         -0.2867334974       -2.4832637574        0.6984466917
 C          1.0159307194       -2.2378578714       -0.0213381052
 C          1.3045212600       -2.7368648763       -1.2842455862
 C          2.4994347808       -2.4158333107       -1.9071421535
 C          3.4290023802       -1.6014779743       -1.2855528118
 C          3.1463788495       -1.0971179157       -0.0224066618
 C          1.9492122252       -1.4145529553        0.5986699070
 H          1.7211374731       -1.0094061264        1.5767318449
 N          4.0844726752       -0.2466990181        0.6102696108
 S          4.2311163193        1.2765490164       -0.0688598531
 O          4.6783288200        1.1332012581       -1.4299732727
 O          5.0943735542        2.0232903967        0.8165150882
 C          2.5842350100        1.9610535419       -0.0327012886
 C          1.6727159937        1.5665824338       -0.9919906573
 C          0.3809366839        2.0629118677       -0.9293169311
 C          0.0257689400        2.9404726678        0.0829745775
 C          0.9502403742        3.3206991087        1.0429529277
 C          2.2413067344        2.8216612697        0.9905899454
 H          2.9929697252        3.0928345797        1.7147001613
 H          0.6665486747        3.9987506533        1.8317585526
 H         -0.9793187676        3.3280741540        0.1240810645
 H         -0.3453876648        1.7550995189       -1.6648014451
 H          1.9813403770        0.8888028360       -1.7715293616
 H          3.9088590995       -0.1414873404        1.6005822122
 H          4.3555905949       -1.3299494663       -1.7643342660
 H          2.7096222451       -2.8063814686       -2.8913106383
 H          0.5850321775       -3.3603069453       -1.7882998185
 H         -0.0597917842       -2.5837637660        1.7688448747
 C         -1.0201996458       -3.7253228688        0.2411654955
 C         -0.4920271812       -5.0707751878        0.6354250387
 C         -1.7558451023       -4.5517243320        1.2509755808
 H         -2.6937304454       -5.0025067670        0.9629424743
 H         -1.7270363143       -4.2276576219        2.2813570195
 H         -0.5606997952       -5.8810816559       -0.0740074476
 H          0.3966262036       -5.0972893623        1.2480506953
 H         -1.4720820426       -3.6232062052       -0.7368803617
