  62
        -98.94495919
 C         -1.8565932272       -0.4078005214        0.0341716529
 C         -2.9238200817       -0.5073071294        0.9673928417
 C         -4.0757746252        0.3699094696        0.7396680579
 C         -4.0652798447        1.2238312845       -0.2994192096
 C         -5.1497888953        2.2042925405       -0.6543101583
 C         -6.2955907692        1.5986913025       -1.4766556833
 C         -7.2330754294        0.6716410631       -0.7019206758
 H         -7.5802312323        1.1785737505        0.1989767064
 H         -8.1059377423        0.4979081645       -1.3344016887
 C         -6.6170552870       -0.6837887877       -0.3279757938
 H         -5.7275324189       -0.8599644852       -0.9371380838
 H         -7.3261904852       -1.4818722478       -0.5589605280
 C         -6.2417252016       -0.8245736717        1.1472261983
 H         -7.1443016912       -0.7814450609        1.7608219006
 H         -5.7828214764       -1.8058336130        1.2919413147
 C         -5.2570597367        0.2379100914        1.6527900236
 H         -5.7620679616        1.1976909861        1.7610490230
 H         -4.8866225782       -0.0753217772        2.6319312639
 H         -5.8694256846        1.0595075502       -2.3258629583
 H         -6.8856140579        2.4285066032       -1.8726616143
 H         -5.5506032103        2.6517902496        0.2557751398
 H         -4.6767446127        2.9893832389       -1.2483498420
 O         -3.0187533801        1.3059613108       -1.1600155493
 C         -1.9003502682        0.4940987443       -1.0287241853
 O         -1.0453757045        0.6927032427       -1.9166690750
 H          0.8036503310        0.7189499904       -0.7143267604
 C          1.1384420189        0.4173429628        0.2670046352
 C          0.4757698146       -0.6082657403        0.9267184498
 C          0.9119082019       -0.9728910451        2.1948058965
 C          1.9829046396       -0.3256767451        2.7871062772
 C          2.6407762982        0.6958441640        2.1263903009
 C          2.2072415848        1.0707900544        0.8612719364
 N          2.8848991130        2.0990375004        0.1721199314
 S          4.5159315507        1.8108179439       -0.0950167852
 O          5.2518976190        2.0992572322        1.1104595989
 O          4.8698030205        2.5959203854       -1.2561981770
 C          4.5965522803        0.0659170795       -0.4555061316
 C          5.0830386532       -0.8113698580        0.4919698903
 C          5.0551747105       -2.1701297506        0.2219252653
 C          4.5394668942       -2.6251221198       -0.9813602298
 C          4.0570286626       -1.7302779846       -1.9241214492
 C          4.0803138283       -0.3711206856       -1.6591477723
 H          3.7144240788        0.3529917128       -2.3698723502
 H          3.6580381122       -2.0843927227       -2.8613377928
 H          4.5133861253       -3.6836766660       -1.1869481233
 H          5.4300725247       -2.8688868561        0.9521107189
 H          5.4744354662       -0.4150806225        1.4143211002
 H          2.4318533763        2.3475557286       -0.6963211657
 H          3.4811298708        1.2087269971        2.5657885596
 H          2.3093206038       -0.6198898519        3.7727943211
 H          0.3971627350       -1.7630520736        2.7214171194
 C         -0.6714731097       -1.3312815223        0.2626933373
 H         -1.0369201138       -2.0913659313        0.9659902679
 C         -0.1966107844       -2.0307813907       -0.9968556429
 C          0.6182288512       -3.2811849560       -0.8672547842
 C         -0.7912053686       -3.3535205859       -1.3717389711
 H         -0.9584436452       -3.5642766629       -2.4174169219
 H         -1.5476155144       -3.7647891297       -0.7191440973
 H          1.4242285996       -3.4430061224       -1.5654453438
 H          0.8192202120       -3.6444620729        0.1288503826
 H          0.0472939247       -1.3501825862       -1.8017814380
 O         -2.9114608186       -1.2992161039        1.9464920470
