  62
        -98.94511957
 C          2.4537865232       -1.2138516949        0.0885983499
 C          3.5081841309       -0.7728865989       -0.7517059063
 C          4.3434232235        0.3150991720       -0.2291710965
 C          4.0705905925        0.8266278521        0.9849669653
 C          4.7972285014        1.9797771232        1.6128141610
 C          4.1217251364        3.3144912886        1.2677619346
 C          3.8298316611        3.4931771919       -0.2223191567
 H          3.0763274841        2.7628570008       -0.5276016277
 H          3.3842194635        4.4823197988       -0.3489480010
 C          5.0606663517        3.3655304316       -1.1309455068
 H          5.0394316668        4.1753612611       -1.8631300880
 H          5.9700470986        3.4856792158       -0.5411048799
 C          5.1353785532        2.0555390443       -1.9174255798
 H          5.9106994071        2.1613414636       -2.6807413764
 H          4.1876465892        1.8847908041       -2.4342697526
 C          5.4691396930        0.8032272951       -1.0970079847
 H          5.6788193172       -0.0081395867       -1.7999418195
 H          6.3656417824        0.9819727751       -0.5001887734
 H          3.1748488624        3.3741892937        1.8100550308
 H          4.7638283469        4.1261326606        1.6148690195
 H          4.7845610533        1.8460522119        2.6958346901
 H          5.8294958214        1.9830684720        1.2682492378
 O          3.0582982637        0.3738096990        1.7666046198
 C          2.2166038825       -0.6433513831        1.3392405656
 O          1.3294790535       -0.9397046949        2.1639268591
 O          3.7398422396       -1.2696738143       -1.8857280456
 C          1.5412961603       -2.3098328698       -0.4400135420
 C          0.2083016863       -1.6813491639       -0.7625506069
 C          0.0219598959       -1.0681461702       -1.9984270197
 C         -1.1592915218       -0.4121148615       -2.2899043161
 C         -2.1743068918       -0.3417708478       -1.3512799012
 C         -1.9905378503       -0.9346998525       -0.1099825288
 C         -0.8147803620       -1.6174008116        0.1708829499
 H         -0.6799151252       -2.0603388944        1.1450239734
 N         -3.0071687227       -0.8436252272        0.8591834003
 S         -3.6028749183        0.6916642271        1.1989206066
 O         -2.6281136217        1.7203218392        0.9170789974
 O         -4.0930310487        0.6197056392        2.5582991976
 C         -4.9946534372        0.8508480764        0.0974527663
 C         -5.0622274176        1.9144077610       -0.7809961518
 C         -6.1589748951        2.0204679805       -1.6224170057
 C         -7.1639978705        1.0669375249       -1.5696893321
 C         -7.0826006611        0.0061449513       -0.6797697054
 C         -5.9894945060       -0.1050358823        0.1644798573
 H         -5.8895505975       -0.9099287908        0.8732386464
 H         -7.8662687459       -0.7331905911       -0.6413772370
 H         -8.0157100012        1.1513312097       -2.2259927497
 H         -6.2238049533        2.8449152641       -2.3142373953
 H         -4.2543168219        2.6289615296       -0.7895656333
 H         -2.7723769419       -1.3186642255        1.7197734766
 H         -3.0930763231        0.1794746679       -1.5651565341
 H         -1.2909000705        0.0542823502       -3.2544605964
 H          0.8248879321       -1.0987494115       -2.7217110043
 H          2.0007383184       -2.6380966850       -1.3818764585
 C          1.4497508919       -3.4967978502        0.4952158167
 C          0.8670969105       -4.7808144317       -0.0127843791
 C          2.3365799633       -4.6817178116        0.2624339872
 H          2.7379925858       -5.1993036193        1.1207981987
 H          3.0132997913       -4.6419750732       -0.5784302707
 H          0.2571296342       -5.3704313631        0.6542866228
 H          0.5449217931       -4.8060122849       -1.0426939871
 H          1.2550825422       -3.2231348721        1.5248004582
