  62
        -98.93715108
 C          0.8451771566        1.6310860000        0.6324602908
 C          1.5063816370        1.2177103090       -0.5496797671
 C          2.4506477669        0.0829527852       -0.4179269117
 C          2.6913643420       -0.4333278015        0.8001472723
 C          3.6367405757       -1.5447643205        1.1695661836
 C          5.1101647827       -1.1029352688        1.1511433909
 C          5.5060189164       -0.2168701771       -0.0274258612
 H          4.8617424357        0.6641018100       -0.0472114936
 H          6.5272157673        0.1320689811        0.1471009585
 C          5.4736901266       -0.8969985779       -1.3939433914
 H          5.8311214090       -0.1710056427       -2.1287364085
 H          6.1704226292       -1.7384393443       -1.3922912543
 C          4.1060476922       -1.4050001890       -1.8542241126
 H          4.1922222937       -1.6647074385       -2.9137296938
 H          3.8347001642       -2.3212399154       -1.3362405497
 C          2.9749023690       -0.3861549827       -1.7525196021
 H          3.2578646274        0.5197187619       -2.3010247236
 H          2.0975351508       -0.7838312256       -2.2816766773
 H          5.7383331049       -1.9949762833        1.1648663841
 H          5.3032399835       -0.5392977702        2.0669760902
 H          3.3803656701       -1.8523782080        2.1856847683
 H          3.4757829461       -2.3977586964        0.5162755504
 O          2.0945073243        0.0562257522        1.9254016403
 C          1.1366473584        1.0500067083        1.8678569989
 O          0.6300863253        1.3365276405        2.9712617293
 H         -0.9197957840        0.7587045915       -1.1682762648
 C         -1.7521117775        1.0337271849       -0.5398175660
 C         -1.5993752620        2.0068783449        0.4380505669
 C         -2.6996178980        2.3460242636        1.2175359547
 C         -3.9225053185        1.7312448614        1.0158199779
 C         -4.0654460297        0.7499140772        0.0513774689
 C         -2.9696657076        0.3961117626       -0.7269731893
 N         -3.0669497381       -0.6161105352       -1.7004741567
 S         -1.9366470704       -1.8529957298       -1.6443538134
 O         -0.6653331842       -1.4068320249       -2.1489060830
 O         -2.5605716301       -2.9421292102       -2.3650059424
 C         -1.8240468186       -2.2508230300        0.0896129795
 C         -0.7748414647       -1.7536045690        0.8339677717
 C         -0.7471913193       -1.9921568690        2.1989004990
 C         -1.7659036553       -2.7223339342        2.7910317980
 C         -2.8093925045       -3.2247075494        2.0276944207
 C         -2.8450658177       -2.9826039036        0.6644488716
 H         -3.6346145857       -3.3598943188        0.0348479188
 H         -3.5958409636       -3.7966716414        2.4929687329
 H         -1.7421716900       -2.8996426243        3.8546167543
 H          0.0599328871       -1.5886376943        2.7905210337
 H          0.0007223365       -1.1895394367        0.3390363248
 H         -3.9956978687       -1.0026761332       -1.7974879084
 H         -5.0148667823        0.2591619439       -0.0984818999
 H         -4.7693200804        2.0076233706        1.6248462423
 H         -2.5869335893        3.0881265912        1.9940132916
 C         -0.2618828020        2.6712712048        0.6554724404
 H         -0.2601399755        3.0775567239        1.6797506781
 C         -0.0260336635        3.8382278235       -0.2929781804
 C         -0.7729877786        4.0173933841       -1.5766020270
 C         -1.0513842347        4.9262692952       -0.4195278934
 H         -0.7125342012        5.9498205193       -0.4720422156
 H         -1.9868189054        4.7950025383        0.1026219023
 H         -0.2247670886        4.3983312471       -2.4245925839
 H         -1.5134534745        3.2782840805       -1.8410191233
 H          1.0141331640        4.1475130282       -0.2974386825
 O          1.3386875979        1.7500802263       -1.6760481493
