  62
        -98.94716709
 C          1.6090494600        1.5646146722       -0.2454546713
 C          2.7705693536        1.2253713289        0.4954839942
 C          3.5528442842        0.0945642953       -0.0134816327
 C          3.1582643332       -0.5396877384       -1.1322340922
 C          3.8639878412       -1.6937872041       -1.7917401878
 C          3.5190752727       -3.0675999598       -1.2003030494
 C          4.0930348468       -3.3420936445        0.1900138721
 H          3.9479822134       -4.4052519766        0.3920251416
 H          5.1679191273       -3.1587082563        0.1802333687
 C          3.4407008214       -2.5295110103        1.3176439034
 H          3.2169118388       -3.1880920325        2.1596784687
 H          2.4900639720       -2.1170489469        0.9716180081
 C          4.3061190296       -1.3891251990        1.8542094490
 H          5.2051382163       -1.7977374106        2.3209942041
 H          3.7378853746       -0.8603744925        2.6236348623
 C          4.7297644772       -0.3660386722        0.7916981426
 H          5.1480420793        0.5056861336        1.3007540813
 H          5.4945754116       -0.7913777731        0.1422054502
 H          3.9094276859       -3.8229249062       -1.8863829621
 H          2.4329738675       -3.1750032654       -1.1728180966
 H          4.9419452605       -1.5368649337       -1.7425822237
 H          3.5609652309       -1.6856089045       -2.8412230893
 O          2.0490431117       -0.1722000354       -1.8255326836
 C          1.2334183387        0.8651439275       -1.3919556314
 O          0.2372384814        1.0526889182       -2.1167100025
 O          3.1355952367        1.8418997310        1.5306781902
 C          0.7312751514        2.6850441158        0.2906944294
 C         -0.5185419088        2.0402034919        0.8353727535
 C         -0.5146438258        1.5173833049        2.1258059039
 C         -1.6073120433        0.8233563042        2.6114968429
 C         -2.7172356655        0.6128664184        1.8114989437
 C         -2.7229548699        1.1194880025        0.5189494359
 C         -1.6418390957        1.8495832080        0.0455113218
 H         -1.6589906801        2.2266854227       -0.9644631423
 N         -3.8184516963        0.8487103216       -0.3232977105
 S         -4.2928165178       -0.7566447682       -0.3986101445
 O         -4.8182963244       -0.9447002424       -1.7330375213
 O         -5.2169453905       -1.0289278646        0.6755021310
 C         -2.8102581131       -1.7257266460       -0.1624040612
 C         -1.7277453665       -1.5012280933       -0.9890436266
 C         -0.5757928120       -2.2471991170       -0.7997835513
 C         -0.5228564331       -3.2005019696        0.2048040922
 C         -1.6206138649       -3.4175516596        1.0231710313
 C         -2.7749808258       -2.6738868657        0.8404475016
 H         -3.6485766500       -2.8052692441        1.4581312223
 H         -1.5774198749       -4.1599588750        1.8036400222
 H          0.3783455089       -3.7758744425        0.3517533067
 H          0.2743734878       -2.0613661026       -1.4379721253
 H         -1.7694841956       -0.7470605821       -1.7591916252
 H         -3.7039236603        1.2244577453       -1.2540769608
 H         -3.5717868819        0.0569570634        2.1622928243
 H         -1.5918986290        0.4307198230        3.6166498280
 H          0.3662266699        1.6483969226        2.7382714962
 H          1.2910218399        3.1169283491        1.1306368842
 C          0.4732051571        3.7703670309       -0.7319968121
 C         -0.0929546193        5.0813499247       -0.2771586752
 C          1.3329092871        4.9973430431       -0.7299181376
 H          1.6009191574        5.4392921003       -1.6779469925
 H          2.1110101861        5.0622477380        0.0163904281
 H         -0.8062203620        5.5845196288       -0.9119767647
 H         -0.2836080045        5.2008974451        0.7786398300
 H          0.1614473940        3.3924143344       -1.6976876146
