  62
        -98.93810000
 C         -1.8376667402       -0.7154396965        0.8034127582
 C         -2.1934191521        0.3483539206       -0.0566352735
 C         -3.6360920595        0.6238643180       -0.1972579377
 C         -4.5241515536       -0.1284135723        0.4792668065
 C         -6.0348154513       -0.0549089086        0.5627570612
 C         -6.8350848289        0.7665279301       -0.4446533774
 C         -6.8040772456        0.2309741395       -1.8756056220
 H         -7.3584033362       -0.7103991432       -1.9065748815
 H         -7.3243265379        0.9445016918       -2.5183520889
 C         -5.4149771225       -0.0340283186       -2.4508699454
 H         -4.9235801712       -0.8221173154       -1.8767297123
 H         -5.5412091055       -0.4097111803       -3.4699587534
 C         -4.4910623829        1.1807802863       -2.5154979410
 H         -4.9858396284        1.9916123116       -3.0538127229
 H         -3.6055836813        0.8915488690       -3.0882718480
 C         -4.0053547403        1.7174410781       -1.1575179148
 H         -3.0913937206        2.2940888808       -1.3296153840
 H         -4.7354554876        2.3897962969       -0.7130912099
 H         -7.8749311537        0.7442697978       -0.1072817590
 H         -6.5191122626        1.8052442374       -0.4202773931
 H         -6.3837959359       -1.0920220224        0.5356177873
 H         -6.2586145123        0.3185565419        1.5681951011
 O         -4.1279026423       -1.1384113371        1.3090051228
 C         -2.7949384233       -1.4608328373        1.4881964994
 O         -2.5949601428       -2.4100362411        2.2726487649
 H          2.0440802501       -0.1099906368        0.0961098859
 C          1.6317040385        0.4643025198        0.9084388180
 C          0.4110325626        0.1146587283        1.4649876463
 C         -0.0877005060        0.8812811772        2.5153199618
 C          0.6035422791        1.9849041111        2.9744137949
 C          1.8092196852        2.3459389735        2.3991927438
 C          2.3251289489        1.5789758570        1.3617546988
 N          3.5703838544        1.8933519548        0.8045946964
 S          3.9683561728        1.5383150787       -0.7770276638
 O          5.1476721174        2.3414640504       -1.0273360418
 O          2.8668970947        1.7381923366       -1.6881411853
 C          4.4459649052       -0.1771782070       -0.7466737889
 C          5.1386941813       -0.6669213746        0.3428409694
 C          5.5475066307       -1.9909539815        0.3353371730
 C          5.2684879688       -2.7966310252       -0.7580227490
 C          4.5772112781       -2.2883976315       -1.8469001160
 C          4.1601042998       -0.9662204693       -1.8430563724
 H          3.6077662076       -0.5335773346       -2.6624961206
 H          4.3609532083       -2.9152968406       -2.6976282174
 H          5.5889309085       -3.8264447671       -0.7621869477
 H          6.0833139899       -2.3904137774        1.1812496126
 H          5.3400055151       -0.0139500149        1.1753336917
 H          3.9784956705        2.7621882787        1.1152469552
 H          2.3462878756        3.2139828171        2.7499570878
 H          0.1987242487        2.5747016746        3.7832029167
 H         -1.0341249169        0.6035868549        2.9597637056
 C         -0.3783783483       -1.0836330381        0.9983269031
 H         -0.3629723357       -1.8355262299        1.8014675221
 C          0.1725099748       -1.7135295950       -0.2643496448
 C          1.2477660600       -2.7536545521       -0.1784843889
 C         -0.1485192014       -3.1481425599       -0.5530145190
 H         -0.3495366638       -3.4358609582       -1.5740456725
 H         -0.7475948178       -3.6754080986        0.1753721888
 H          1.6029557146       -3.0229707929        0.8045477337
 H          2.0102049764       -2.7720407449       -0.9423747718
 H          0.1882442963       -1.0240023788       -1.1017167197
 O         -1.3493951691        1.0474155050       -0.6765656971
