  62
        -98.94468664
 C         -2.0072744363       -0.7557958119        0.5633868992
 C         -1.9618716046       -0.0550317590       -0.6658700814
 C         -2.0179481477        1.4073540408       -0.5674263199
 C         -2.0478666740        1.9955421627        0.6416766709
 C         -2.0565552778        3.4771686077        0.9060805190
 C         -3.4474613732        4.1218877370        0.8263382956
 C         -4.0225738926        4.2577796035       -0.5840354385
 H         -4.8906276959        4.9160897108       -0.5135086577
 H         -3.2910434186        4.7489855102       -1.2261904160
 C         -4.4592476795        2.9306568206       -1.2197815569
 H         -4.5547363608        2.1687709445       -0.4427982360
 H         -5.4448823421        3.0514553143       -1.6745644795
 C         -3.5188907468        2.4098876574       -2.3067465748
 H         -3.5128039155        3.1034779730       -3.1503807598
 H         -3.9020211899        1.4498069305       -2.6612077712
 C         -2.0728922918        2.1973903358       -1.8395495117
 H         -1.5398034317        1.6250528688       -2.6027832016
 H         -1.5699895350        3.1559552858       -1.7118874647
 H         -4.1350593504        3.5427775189        1.4469171915
 H         -3.3673378913        5.1207680373        1.2612917708
 H         -1.6692899347        3.6120551919        1.9186002140
 H         -1.3796407546        3.9728890900        0.2092994992
 O         -2.0549995014        1.2864244223        1.8034207734
 C         -2.0377974013       -0.0988749957        1.7915673123
 O         -2.0553423933       -0.6234429273        2.9258430063
 H          0.4803921605       -1.1793688104        0.9539264253
 C          0.5299418319       -1.9715676651        0.2195473349
 C         -0.6211338031       -2.6776530182       -0.1067469273
 C         -0.5282686490       -3.7047451344       -1.0364881694
 C          0.6818318430       -3.9849334545       -1.6482570129
 C          1.8128740272       -3.2446797242       -1.3590661169
 C          1.7341038539       -2.2288512281       -0.4121013057
 N          2.8656912590       -1.4668140383       -0.0707273000
 S          2.6357187866        0.1493299194        0.3636135465
 O          2.2922700468        0.2075025014        1.7638071914
 O          1.7248162321        0.7993248015       -0.5511539083
 C          4.2920661931        0.7704202722        0.1320066469
 C          5.2288847068        0.5496751003        1.1240340137
 C          6.5257035925        0.9993590939        0.9327933178
 C          6.8628150127        1.6574235826       -0.2408494157
 C          5.9115879055        1.8734424407       -1.2265427086
 C          4.6128901119        1.4250676387       -1.0420913764
 H          3.8371308974        1.5761157699       -1.7757506210
 H          6.1750762247        2.3884666773       -2.1362408605
 H          7.8725746148        2.0068547450       -0.3869852409
 H          7.2668945172        0.8356377781        1.6982343210
 H          4.9162764266        0.0424704399        2.0218897149
 H          3.6204790100       -1.5678362948       -0.7359688365
 H          2.7481171494       -3.4468425893       -1.8584977751
 H          0.7394853437       -4.7799939423       -2.3761448263
 H         -1.4056429796       -4.2751136304       -1.2940499671
 C         -1.9092241165       -2.2710066637        0.5689599697
 H         -1.8542244302       -2.5705418697        1.6264183731
 C         -3.1427597610       -2.8893108907       -0.0549032304
 C         -3.6152192094       -4.2422444329        0.3829828016
 C         -4.3843835967       -3.0171329683        0.7736448638
 H         -5.3388551255       -2.8325829752        0.3041129319
 H         -4.3298460184       -2.6807235668        1.7991032711
 H         -4.0468210786       -4.9013393891       -0.3550550143
 H         -3.0455993780       -4.7466347098        1.1488138197
 H         -3.2612386875       -2.6141525704       -1.0966066171
 O         -1.8814514688       -0.6210427114       -1.7877547124
