  62
        -98.94044299
 C          2.5610019866        0.0181595010        0.4597463546
 C          2.1518059220       -0.5861651395       -0.7508242829
 C          1.7594875133       -2.0061624068       -0.6810808601
 C          1.7775663309       -2.6378257089        0.5074934563
 C          1.4634351029       -4.0698144183        0.8910954057
 C          0.8490712891       -5.0309547477       -0.1215165237
 C         -0.6099429865       -4.7340283079       -0.4707542583
 H         -0.9020377375       -5.3728545300       -1.3069381046
 H         -1.2306728828       -5.0023454497        0.3877858757
 C         -0.9251314512       -3.2822082353       -0.8230471114
 H         -2.0030269551       -3.1999648553       -0.9921790423
 H         -0.6961169350       -2.6278469647        0.0216200395
 C         -0.2285301485       -2.7376752918       -2.0676497615
 H         -0.6288691599       -1.7352156143       -2.2428491107
 H         -0.4757051325       -3.3589878971       -2.9317444232
 C          1.3001871701       -2.6197949614       -1.9726337472
 H          1.7806404486       -3.5814501714       -2.1390607779
 H          1.6329653857       -1.9426740059       -2.7653861179
 H          1.4615204084       -5.0708640065       -1.0174597259
 H          0.8830408240       -6.0259301528        0.3304701661
 H          2.4115591724       -4.4920195396        1.2422739826
 H          0.8110488291       -4.0073235028        1.7682527991
 O          2.1730505090       -2.0061759937        1.6533700175
 C          2.5498169137       -0.6767809956        1.6655081984
 O          2.8560554292       -0.2369857773        2.7940929084
 H          0.3504389699        1.0791821066        0.9585881800
 C          0.4995577490        1.9493611951        0.3363854091
 C          1.7886574185        2.3242265159       -0.0180615479
 C          1.9565098517        3.4566693581       -0.8050387851
 C          0.8555771468        4.1707973388       -1.2457259352
 C         -0.4276169411        3.7642002578       -0.9293224041
 C         -0.6054563764        2.6402434352       -0.1309854333
 N         -1.8956456983        2.1924773072        0.2257848684
 S         -2.1911640643        0.5368479608        0.0185289898
 O         -1.5498453562       -0.2010699621        1.0774406743
 O         -1.8697244381        0.1517177289       -1.3365176671
 C         -3.9583021471        0.5015703536        0.2585026698
 C         -4.7962281180        0.3382726613       -0.8278253684
 C         -6.1673384322        0.3367083262       -0.6227490516
 C         -6.6738221267        0.5016074654        0.6573618133
 C         -5.8197811000        0.6642120789        1.7384845395
 C         -4.4483558055        0.6642417070        1.5404531102
 H         -3.7457473019        0.7776109263        2.3495370250
 H         -6.2166471378        0.7897421602        2.7330108132
 H         -7.7407898802        0.5003739101        0.8147043774
 H         -6.8330995994        0.2068590660       -1.4605635594
 H         -4.3555232499        0.2082080210       -1.8032298327
 H         -2.6160283063        2.7179938052       -0.2546041781
 H         -1.2849473505        4.3079660440       -1.2970482727
 H          0.9988851676        5.0466388986       -1.8604055328
 H          2.9487689955        3.7736046810       -1.0821958339
 C          2.9401946204        1.4870475119        0.4868631708
 H          3.1069975158        1.7376586533        1.5456687553
 C          4.2277273965        1.7163836262       -0.2783783744
 C          5.1805806334        2.7934775576        0.1430036285
 C          5.5273541125        1.3542666605        0.3733440170
 H          6.2995849755        0.9032798236       -0.2313433094
 H          5.4819306033        0.9695598911        1.3820753965
 H          5.7207266414        3.3315967897       -0.6213502439
 H          4.9125369998        3.3911010945        1.0011327091
 H          4.1218961696        1.5067811827       -1.3366397499
 O          2.1285846079        0.0277237810       -1.8508794933
