  62
        -98.93735898
 C         -2.1114047503       -0.9819195231        0.0191518588
 C         -2.5321962170        0.3553707963       -0.1688663496
 C         -3.8471325954        0.7092994038        0.3959500406
 C         -4.5583683896       -0.2223335000        1.0532877942
 C         -5.8941848903       -0.0765377720        1.7386274364
 C         -6.9785722107        0.7345269964        1.0165778502
 C         -6.9491841531        0.6386117434       -0.5157676090
 H         -6.2747154550       -0.1604253288       -0.8281583947
 H         -7.9475459431        0.3811677138       -0.8743423604
 C         -6.5327662029        1.9492167454       -1.1877830405
 H         -7.0372421130        2.7768173442       -0.6842507086
 H         -6.8788506328        1.9382232354       -2.2241808206
 C         -5.0295235982        2.2229490202       -1.2155410418
 H         -4.5396205657        1.5308406213       -1.9057497047
 H         -4.8779520463        3.2300801738       -1.6115475038
 C         -4.3117862288        2.1141403884        0.1397467978
 H         -3.4064625806        2.7257266326        0.0910219882
 H         -4.9371555415        2.4858801485        0.9478004721
 H         -7.9398814454        0.3728647245        1.3855572384
 H         -6.9056007850        1.7814218608        1.3078601716
 H         -5.7222983294        0.3576530402        2.7279288573
 H         -6.2455967878       -1.0994717368        1.8939828817
 O         -4.1064263843       -1.4978643803        1.2206231461
 C         -2.8849499724       -1.9080144783        0.7178454692
 O         -2.6039287786       -3.1002048675        0.9549314604
 O         -1.8478732629        1.2208586251       -0.7741669743
 C         -0.7698192934       -1.4512910013       -0.5185070848
 C          0.3285717572       -0.6704618847        0.1608495903
 C          0.5041600743       -0.8300891225        1.5333430584
 C          1.4756260831       -0.1183878718        2.2101412985
 C          2.2933732341        0.7708018133        1.5339481170
 C          2.1292940067        0.9334670058        0.1654258124
 C          1.1606527984        0.2057546203       -0.5159999074
 H          1.0425369806        0.3512386637       -1.5778060736
 N          2.9553712241        1.8314690375       -0.5277651683
 S          4.5902839348        1.8469824334       -0.1859862287
 O          4.8333020031        2.5977081941        1.0207317102
 O          5.2216476278        2.3551773846       -1.3835458857
 C          5.0241949251        0.1350704955        0.0701915466
 C          5.5075856328       -0.2788910358        1.2943491199
 C          5.8072398088       -1.6193683168        1.4785258910
 C          5.6155281421       -2.5184057857        0.4412972054
 C          5.1322308187       -2.0863769788       -0.7845520090
 C          4.8320108586       -0.7476043133       -0.9744191004
 H          4.4609791966       -0.3791179141       -1.9171313744
 H          4.9859374128       -2.7877085508       -1.5903114645
 H          5.8448419274       -3.5621643759        0.5874339816
 H          6.1852178497       -1.9577875250        2.4297876652
 H          5.6402758520        0.4528987121        2.0745078878
 H          2.7742199722        1.8848101608       -1.5186567655
 H          3.0420778999        1.3508047070        2.0485812958
 H          1.5959027281       -0.2508842591        3.2746545732
 H         -0.1424115669       -1.5172784255        2.0623415774
 H         -0.6762472130       -2.5029614912       -0.2141165492
 C         -0.7390892225       -1.3769727305       -2.0302044998
 C          0.2507997715       -2.2025203751       -2.7945936821
 C         -1.2048916428       -2.5575781775       -2.8256297627
 H         -1.7616344046       -2.3795012741       -3.7335858560
 H         -1.5332161073       -3.4287948033       -2.2776536705
 H          0.6942640177       -1.7853559007       -3.6861160478
 H          0.9130210076       -2.8371508090       -2.2257596810
 H         -0.9896289547       -0.3935626484       -2.4104835494
