  62
        -98.93976323
 C         -2.3442409980       -1.0213158539        0.3400086456
 C         -2.6114547005        0.0530129301       -0.5438942112
 C         -3.6064813307        1.0342654628       -0.0787107046
 C         -4.1590033335        0.8970307317        1.1393791902
 C         -5.2112014676        1.7989929167        1.7147890306
 C         -6.6210866894        1.2867434233        1.3887281548
 C         -6.8270573992        0.9409044283       -0.0860067241
 H         -6.1971048282        0.0861922098       -0.3431229202
 H         -7.8648146256        0.6215071058       -0.2033712668
 C         -6.5347134555        2.0944824313       -1.0556663587
 H         -7.3345928488        2.1394132993       -1.7977948916
 H         -6.5399674564        3.0423321416       -0.5163368386
 C         -5.2203227859        1.9582180229       -1.8265736746
 H         -5.2184916461        2.7004628105       -2.6293921548
 H         -5.1704851682        0.9716917808       -2.2945989940
 C         -3.9405720908        2.1682220605       -1.0073683002
 H         -3.1047566627        2.2373478427       -1.7101304359
 H         -4.0055811688        3.1099902126       -0.4585889798
 H         -7.3429262126        2.0480000186        1.6898807346
 H         -6.8081000035        0.3876194906        1.9802910112
 H         -5.0778044185        2.8039714398        1.3191338225
 H         -5.0853082891        1.8247588668        2.7984382672
 O         -3.8472956650       -0.1232332866        1.9780717719
 C         -2.9530037167       -1.1071956995        1.5965239082
 O         -2.7825839215       -2.0001023937        2.4498780395
 O         -2.0576701953        0.2099051385       -1.6640745995
 C         -1.3832726713       -2.1535338417        0.0123276156
 C          0.0373013440       -1.7880586951        0.3582759673
 C          0.8299999536       -2.6360432891        1.1220069230
 C          2.1408227798       -2.3005569425        1.4138707416
 C          2.6858749002       -1.1160499875        0.9518153471
 C          1.9016629471       -0.2613719527        0.1880145737
 C          0.5882755495       -0.6000043826       -0.1021304811
 H         -0.0135580735        0.0607876765       -0.7089353599
 N          2.4458349577        0.9485597821       -0.2837121722
 S          3.8520066970        0.8416428747       -1.1998282019
 O          3.8629607968        2.0274740103       -2.0278942475
 O          3.9349194011       -0.4257199584       -1.8887104327
 C          5.1553258667        0.9663338249        0.0068493714
 C          6.1083832048       -0.0291124906        0.0975172023
 C          7.1184429755        0.0943225315        1.0390404361
 C          7.1572499480        1.2049787374        1.8680294593
 C          6.1938021489        2.1972916599        1.7623317633
 C          5.1822515096        2.0806626358        0.8225129978
 H          4.4170814718        2.8298857013        0.7052226996
 H          6.2274878220        3.0596714377        2.4085151748
 H          7.9432667983        1.2983941993        2.6006712555
 H          7.8685559886       -0.6756111969        1.1224971719
 H          6.0339438326       -0.8771333810       -0.5643813314
 H          1.7663413278        1.5257785594       -0.7596474056
 H          3.7059356273       -0.8498096929        1.1759200343
 H          2.7449546827       -2.9681496486        2.0089039669
 H          0.4087940813       -3.5584163845        1.4944946935
 H         -1.6814898914       -2.9808862358        0.6752280070
 C         -1.5284592173       -2.6509944401       -1.4211968068
 C         -0.4811905191       -2.4809472480       -2.4768759813
 C         -0.7333746199       -3.8343857336       -1.8878195147
 H         -1.2224530750       -4.5827444702       -2.4927131637
 H          0.0123634158       -4.2273725590       -1.2131949928
 H         -0.8161411825       -2.2785320140       -3.4831079035
 H          0.4377452133       -1.9756446803       -2.2213017004
 H         -2.5576568820       -2.5966771828       -1.7621529828
