  62
        -98.93810549
 C         -2.2545985348       -0.7457037645       -0.3100087655
 C         -3.5966220277       -1.1258732925       -0.0430638385
 C         -4.4238372893       -0.1422945744        0.6630063608
 C         -3.8739416462        1.0121505263        1.0793073621
 C         -4.5757316005        2.1049414025        1.8389669362
 C         -5.3574750894        3.0807435432        0.9484626411
 C         -6.6438128518        2.5200228158        0.3404213072
 H         -7.2576801318        2.0852788335        1.1298216017
 H         -7.1967700555        3.3652679749       -0.0741037108
 C         -6.4204966217        1.4841864047       -0.7703572409
 H         -5.3914510383        1.5536094952       -1.1307921691
 H         -7.0715739948        1.7119465993       -1.6173015287
 C         -6.7040123684        0.0400224999       -0.3564458979
 H         -6.4793626681       -0.6108878857       -1.2054161106
 H         -7.7641474132       -0.0717173213       -0.1189102150
 C         -5.8805347486       -0.4453369501        0.8438430167
 H         -6.2519565517        0.0069573640        1.7631411022
 H         -5.9875272736       -1.5302634575        0.9185429208
 H         -5.6184868601        3.9446194376        1.5640828608
 H         -4.6983437972        3.4292428697        0.1499320508
 H         -5.2476159856        1.6649501549        2.5765413109
 H         -3.7995296702        2.6642622818        2.3659075536
 O         -2.5674925282        1.3140592969        0.8643041848
 C         -1.7295305582        0.4642485124        0.1486255128
 O         -0.5773471667        0.9143736238        0.0056063802
 O         -4.0805626476       -2.2390756367       -0.3791651577
 C         -1.3898365181       -1.7498280650       -1.0536286409
 C         -0.1100748917       -1.9812816638       -0.2932837845
 C         -0.1238054942       -2.8043669670        0.8288153270
 C          1.0211258632       -2.9914596231        1.5801515802
 C          2.2005055832       -2.3559736168        1.2330859790
 C          2.2198933987       -1.5227386935        0.1232276955
 C          1.0730196161       -1.3508944109       -0.6415285603
 H          1.0921822100       -0.6872872012       -1.4918617562
 N          3.4114952003       -0.8683019726       -0.2425659881
 S          4.3685197987       -0.2382080072        0.9981389235
 O          5.1776104205       -1.3079757427        1.5303511315
 O          3.5596535497        0.4738308212        1.9617458090
 C          5.3961207196        0.8948099649        0.0839628922
 C          6.5996491017        0.4518048353       -0.4302842620
 C          7.3782224662        1.3322759821       -1.1647564664
 C          6.9422047441        2.6322820664       -1.3724273075
 C          5.7315905014        3.0624696840       -0.8496658222
 C          4.9474561061        2.1869437468       -0.1151623550
 H          4.0029083189        2.4807424086        0.3157222396
 H          5.3952773045        4.0741444830       -1.0107195634
 H          7.5497760870        3.3166198022       -1.9432488654
 H          8.3205993843        1.0028179732       -1.5715116019
 H          6.8994941849       -0.5646175307       -0.2359021862
 H          3.2430809925       -0.1660381387       -0.9505278459
 H          3.0971629138       -2.4778754497        1.8194416790
 H          0.9966437369       -3.6323543728        2.4489961937
 H         -1.0489689587       -3.2868621258        1.1134628354
 H         -1.9760336871       -2.6825596362       -1.0233775908
 C         -1.1626163141       -1.4320525351       -2.5240361409
 C         -2.2705824528       -0.8566265546       -3.3535398591
 C         -1.0514539045       -0.0374382326       -3.0599564637
 H         -0.3526351065        0.1426191860       -3.8641530251
 H         -1.1342019173        0.7819921712       -2.3636443656
 H         -2.4144620533       -1.2298432787       -4.3561526127
 H         -3.1893042017       -0.6039194953       -2.8441599200
 H         -0.5414262110       -2.1838539428       -3.0017279522
