  62
        -98.94122908
 C         -2.7453469300       -0.8233125175       -0.3507013302
 C         -2.1062283212        0.1715098557       -1.1307459366
 C         -2.5862463307        1.5454613402       -0.9325664601
 C         -3.6225183087        1.7877890537       -0.1107933452
 C         -4.2545445613        3.1274957763        0.1528560613
 C         -3.5507784283        3.9507856914        1.2400368046
 C         -2.1927884387        4.5277561723        0.8387521925
 H         -2.2928136148        5.0724782679       -0.1005538083
 H         -1.9100972811        5.2500613759        1.6069956686
 C         -1.0774338082        3.4807047817        0.7126384009
 H         -1.3772588456        2.5590845682        1.2180583540
 H         -0.1770358943        3.8324139427        1.2217004716
 C         -0.6748288256        3.1428071243       -0.7227072220
 H         -0.2277642527        4.0216953301       -1.1932081203
 H          0.0875638990        2.3601422805       -0.6720268609
 C         -1.8296191886        2.6499637472       -1.6057342934
 H         -2.4949388246        3.4781699974       -1.8489985352
 H         -1.4100974804        2.2512226652       -2.5324399684
 H         -3.4311617805        3.3269997803        2.1290132857
 H         -4.2125060561        4.7798389193        1.5011494125
 H         -4.2912768782        3.7021665531       -0.7729642908
 H         -5.2770525133        2.9282077872        0.4808367147
 O         -4.2520866015        0.7968641793        0.5747773518
 C         -3.8002469694       -0.5096043660        0.5124254024
 O         -4.4254381096       -1.2989572227        1.2491274540
 H          0.2009364647       -1.5335793211       -1.0838440986
 C          0.1795291221       -1.9344357629       -0.0818832362
 C         -1.0217947287       -2.3863540490        0.4451361242
 C         -1.0339458834       -2.8621384324        1.7516824826
 C          0.1247571706       -2.8764590933        2.5085452292
 C          1.3164308590       -2.4059249753        1.9851327896
 C          1.3352708393       -1.9230894670        0.6838460363
 N          2.5383451835       -1.4019965863        0.1439593726
 S          3.0319942598        0.0363081330        0.8920621472
 O          3.4363674022       -0.2734018271        2.2403701375
 O          2.0118772303        1.0527243605        0.7532504588
 C          4.4597642315        0.4532633887       -0.0892275382
 C          5.6705892754       -0.1403026936        0.2111690330
 C          6.7740546533        0.1571252620       -0.5724283110
 C          6.6481739057        1.0361359829       -1.6379544937
 C          5.4258880269        1.6239300006       -1.9268982862
 C          4.3179373871        1.3297091898       -1.1476603607
 H          3.3498947146        1.7690405551       -1.3313714810
 H          5.3305240643        2.3083850522       -2.7545040899
 H          7.5082792163        1.2670891207       -2.2463929682
 H          7.7266965599       -0.2960545220       -0.3505155420
 H          5.7214218516       -0.8099941915        1.0534493300
 H          2.4140106345       -1.1989170067       -0.8414525090
 H          2.2177760140       -2.3796458171        2.5751772160
 H          0.0979377274       -3.2485897583        3.5218006865
 H         -1.9679730417       -3.1987784739        2.1792630890
 C         -2.3032816091       -2.2807582097       -0.3469618368
 H         -3.0835449537       -2.8270917807        0.1989472335
 C         -2.1858956350       -2.8716553066       -1.7372285104
 C         -2.1723382148       -4.3618625032       -1.8909879275
 C         -3.3674609353       -3.5733297368       -2.3332339895
 H         -3.5518240443       -3.4621617811       -3.3911979174
 H         -4.2670756890       -3.6306947087       -1.7376449717
 H         -2.2613207755       -4.9560482042       -0.9940270572
 H         -1.5347952355       -4.7962693791       -2.6454915748
 H         -1.5699739109       -2.2879197399       -2.4078694515
 O         -1.1877533379       -0.0487007270       -1.9647767143
