  62
        -98.93958154
 C         -1.6309889257       -1.3977515248       -0.3282539051
 C         -1.4071799222       -0.0319137251       -0.6134126054
 C         -2.2586139046        0.9486720306        0.0905901840
 C         -3.2116360181        0.5047320267        0.9288323591
 C         -4.2136418655        1.3164509680        1.7043153763
 C         -5.3537372825        1.8551770948        0.8209445077
 C         -4.9252683554        2.3680423625       -0.5522190939
 H         -4.3820534776        1.5788335618       -1.0751411697
 H         -5.8318879495        2.5740536649       -1.1272389934
 C         -4.0826787292        3.6410961742       -0.5392218900
 H         -3.8760098733        3.9074370996       -1.5787899133
 H         -4.6673277573        4.4516438114       -0.0979132942
 C         -2.7506895000        3.5509056444        0.2062807132
 H         -2.1842750027        4.4583898648       -0.0241092725
 H         -2.9080849190        3.5524066842        1.2815757342
 C         -1.8637248127        2.3768696537       -0.1977713445
 H         -1.6798272034        2.4254025464       -1.2769807753
 H         -0.8823035189        2.5040857913        0.2794707083
 H         -5.8668722128        2.6495196469        1.3652809899
 H         -6.0650356880        1.0413538274        0.6612799799
 H         -4.6414944705        0.6520205832        2.4584192927
 H         -3.7060559474        2.1225617693        2.2268145461
 O         -3.4249193548       -0.8248715855        1.1441781713
 C         -2.6323247571       -1.7922760931        0.5630134977
 O         -2.9213106897       -2.9600957441        0.8981709523
 H          1.1398156951       -0.7001158753       -0.3137219815
 C          1.3217490192       -1.6389881744        0.1797885557
 C          0.4482798077       -2.7002362038       -0.0168726284
 C          0.7033369784       -3.9058922420        0.6248668542
 C          1.7990326972       -4.0386355028        1.4593795261
 C          2.6390056420       -2.9651927600        1.6899731364
 C          2.3921893768       -1.7525269278        1.0531392468
 N          3.2265739692       -0.6500816816        1.2809419914
 S          2.6401085113        0.9200005757        1.4191468050
 O          3.4175049388        1.4975676645        2.4992324000
 O          1.2078245393        0.9480121371        1.5859558167
 C          3.1567438714        1.6897226654       -0.1018944575
 C          4.4747738790        2.1001080622       -0.1826803532
 C          4.9260601243        2.6928852289       -1.3495947829
 C          4.0552154422        2.8661631906       -2.4153329882
 C          2.7372122403        2.4501679694       -2.3181890530
 C          2.2779853565        1.8546151279       -1.1522003427
 H          1.2560126692        1.5186243892       -1.0628281221
 H          2.0553352404        2.5807724999       -3.1434073236
 H          4.4043215012        3.3287076490       -3.3251700657
 H          5.9511571574        3.0181884758       -1.4251401233
 H          5.1118595001        1.9611340261        0.6749988422
 H          3.9521273286       -0.8151639594        1.9633702868
 H          3.4774802764       -3.0588126977        2.3638002259
 H          1.9886629094       -4.9804102454        1.9519740012
 H          0.0245129586       -4.7342508086        0.4838319784
 C         -0.7787131005       -2.5300418314       -0.8827996253
 H         -1.3882604980       -3.4382672861       -0.7775960777
 C         -0.4027362314       -2.3749944282       -2.3425861534
 C         -0.0560760185       -3.5995447745       -3.1330526693
 C         -1.3410513578       -2.8748491673       -3.3976060998
 H         -1.4384701133       -2.3067864867       -4.3103626199
 H         -2.2628312495       -3.3335737492       -3.0694199431
 H          0.7327874570       -3.5316427609       -3.8660954114
 H         -0.1077157076       -4.5528800542       -2.6291012263
 H          0.1437965516       -1.4660679848       -2.5532494906
 O         -0.5428335562        0.3877944380       -1.4289362590
