  62
        -98.93741212
 C         -2.3049623400       -1.1158538008        0.1293208891
 C         -2.2704562306       -0.0108654902       -0.7565143601
 C         -2.8874001907        1.2268138493       -0.2568763289
 C         -3.3732999302        1.2826877783        0.9952309513
 C         -3.9832911102        2.4870199377        1.6596918624
 C         -5.4690509604        2.6985010076        1.3375110932
 C         -5.7642991310        3.1889237886       -0.0804328263
 H         -6.8100409611        3.5017904284       -0.0999125157
 H         -5.1567837113        4.0693129289       -0.2921215659
 C         -5.5439445212        2.1334930995       -1.1729764272
 H         -5.5021818808        1.1416339191       -0.7169984080
 H         -6.3942678215        2.1356309598       -1.8584785569
 C         -4.2840727816        2.3449937003       -2.0124133775
 H         -4.3718064820        3.2757730607       -2.5770174168
 H         -4.2062946617        1.5226564509       -2.7281221082
 C         -2.9840198213        2.3892656500       -1.1987479480
 H         -2.1412380515        2.3254791007       -1.8915522984
 H         -2.9132516113        3.3285998296       -0.6505471673
 H         -6.0017285901        1.7620743573        1.5183448027
 H         -5.8513385602        3.4398919070        2.0428679839
 H         -3.8824015197        2.3295502669        2.7358439723
 H         -3.4184502905        3.3791775880        1.3866836229
 O         -3.3392112397        0.2149834877        1.8369251205
 C         -2.8268218796       -1.0015754919        1.4212607594
 O         -2.8907340290       -1.9021256526        2.2825590787
 H          0.1961271295       -0.7643936695       -0.9687255616
 C          0.5845117699       -1.5441607699       -0.3291807623
 C         -0.2730984597       -2.5331807504        0.1337289273
 C          0.2438604608       -3.5267644809        0.9554813263
 C          1.5837097709       -3.5259699509        1.3052239858
 C          2.4330207005       -2.5352254404        0.8457344462
 C          1.9239448000       -1.5375542699        0.0258920872
 N          2.7824397796       -0.5074735594       -0.4351158224
 S          3.2014376798        0.6380607399        0.7387856883
 O          3.4815777405       -0.0442340010        1.9757802977
 O          2.1925624196        1.6773851796        0.7877403794
 C          4.7081236794        1.2919788207        0.0481288682
 C          5.8866601097        0.6046619508        0.2643331972
 C          7.0564224293        1.0862056114       -0.3009320129
 C          7.0276107588        2.2389151820       -1.0718066420
 C          5.8366244086        2.9175105319       -1.2804309710
 C          4.6631623789        2.4405934713       -0.7174693809
 H          3.7167293487        2.9411612112       -0.8454588102
 H          5.8167485382        3.8144442524       -1.8784593304
 H          7.9392557985        2.6124221525       -1.5108083021
 H          7.9847764895        0.5625500315       -0.1392582436
 H          5.8619987101       -0.2817270197        0.8762298266
 H          2.3516770292       -0.0001073789       -1.1988470119
 H          3.4718195906       -2.5118304304        1.1296738158
 H          1.9691481113       -4.3026562113        1.9481481651
 H         -0.4169415289       -4.2907892013        1.3387197660
 C         -1.7380825599       -2.4847679505       -0.2175418221
 H         -2.2606614095       -3.1898682011        0.4480061675
 C         -2.0311566003       -2.9084710095       -1.6506281123
 C         -0.9770358207       -3.0733097584       -2.7001284729
 C         -1.6394192002       -4.2808511490       -2.1132163635
 H         -2.3342908704       -4.8412894287       -2.7198716037
 H         -1.0592865798       -4.8842381294       -1.4311909542
 H         -1.2272796212       -2.7780318977       -3.7076597426
 H          0.0486923493       -2.8750444884       -2.4318945231
 H         -2.9916213306       -2.5367914694       -1.9924287317
 O         -1.7509401710       -0.0285574092       -1.9028678803
