  62
        -98.93192873
 C         -2.4153472930       -0.4988484176        0.4338985423
 C         -3.2054464237       -0.4267540530       -0.7380122097
 C         -4.3109384171        0.5536708685       -0.7186154051
 C         -4.4832099145        1.3348643368        0.3603745180
 C         -5.5636536213        2.3545530825        0.5923348864
 C         -6.7448893282        1.7304075199        1.3544173159
 C         -7.7957822054        1.0563406668        0.4730302256
 H         -8.4972234922        0.5453749358        1.1366661939
 H         -8.3556598340        1.8226801872       -0.0671631691
 C         -7.2506851699        0.0450925998       -0.5389780228
 H         -6.4877037864       -0.5751507912       -0.0649776577
 H         -8.0709221339       -0.6157559556       -0.8262755409
 C         -6.6784374009        0.7043610567       -1.8027538277
 H         -6.9816384520        1.7509553289       -1.8256590786
 H         -7.1191376104        0.2355869640       -2.6850682199
 C         -5.1540083201        0.6044944473       -1.9638694276
 H         -4.8060386908        1.4351591487       -2.5868020227
 H         -4.9045901634       -0.3144168401       -2.5038118153
 H         -7.2406764329        2.5118050112        1.9339498080
 H         -6.3391348050        1.0052439975        2.0646697814
 H         -5.1238101387        3.1374703791        1.2136314477
 H         -5.8885979083        2.7928886357       -0.3464899480
 O         -3.6802313013        1.2531107624        1.4576679444
 C         -2.6460695421        0.3418759090        1.5257533857
 O         -2.0091818397        0.3670200952        2.5990401867
 O         -3.0216000791       -1.1375940609       -1.7586314616
 C         -1.2571367180       -1.4690438722        0.6004146513
 C          0.0203320663       -0.8673795734        0.0738570043
 C          0.1074042831       -0.3752541496       -1.2248663661
 C          1.2916652076        0.1671521707       -1.6891489273
 C          2.4069983171        0.2367305297       -0.8722218463
 C          2.3298377196       -0.2469292626        0.4264544835
 C          1.1405882554       -0.7970853541        0.8884461893
 H          1.0811144725       -1.1626418145        1.9051930532
 N          3.4530194813       -0.1620394024        1.2654342466
 S          4.9261386590       -0.7275759024        0.6920110079
 O          4.7412264911       -1.7779462879       -0.2819443498
 O          5.6830380168       -1.0722982379        1.8753671559
 C          5.6666258111        0.6976040296       -0.0755416168
 C          5.8271862941        1.8385328102        0.6860766779
 C          6.4126915985        2.9525924848        0.1063803811
 C          6.8281714339        2.9062784800       -1.2162062048
 C          6.6629698917        1.7520871600       -1.9663520020
 C          6.0769531578        0.6343656861       -1.3927200888
 H          5.9241456243       -0.2829937738       -1.9387481253
 H          6.9870076899        1.7179551467       -2.9941414812
 H          7.2834835934        3.7751137240       -1.6647657609
 H          6.5427426710        3.8520632798        0.6863874319
 H          5.4950837280        1.8327423841        1.7108769998
 H          3.2852384942       -0.4816346355        2.2084083381
 H          3.3306273866        0.6609013300       -1.2307438242
 H          1.3471011521        0.5429575925       -2.6996012579
 H         -0.7610616168       -0.4285197319       -1.8636972740
 H         -1.1403596552       -1.5856902176        1.6898603539
 C         -1.5470792881       -2.8523273629        0.0329103124
 C         -0.8504332338       -3.4336206967       -1.1565948864
 C         -0.5456669503       -3.9552246012        0.2133504557
 H         -0.8979051358       -4.9376417990        0.4893167900
 H          0.4105383079       -3.6928492004        0.6425766130
 H         -1.4364363673       -4.0421031591       -1.8282182406
 H         -0.0973024815       -2.8421826869       -1.6525213111
 H         -2.5906133453       -3.1249115186        0.1531694856
