  62
        -98.93998643
 C         -2.1010052793       -0.6067158654        0.2716144579
 C         -2.8892085625        0.2551676094        1.0756983855
 C         -3.8495593231        1.1094785712        0.3652919296
 C         -3.8826283990        1.0805251079       -0.9793523252
 C         -4.8567805286        1.8419032110       -1.8295601194
 C         -6.1189668289        1.0110631867       -2.1021653941
 C         -6.7320163787        0.3856431940       -0.8490264593
 H         -7.6310518749       -0.1505697261       -1.1601470012
 H         -6.0398793199       -0.3570391501       -0.4453369337
 C         -7.0927848737        1.3921145662        0.2525520681
 H         -8.0862747476        1.1507795707        0.6361694478
 H         -7.1427851172        2.3978422417       -0.1662412400
 C         -6.1409849143        1.3899054257        1.4502422431
 H         -6.6009828975        1.9731825848        2.2523374755
 H         -6.0176248482        0.3683803096        1.8193180011
 C         -4.7488098108        1.9813905066        1.1955213731
 H         -4.8460734530        2.9725002533        0.7474622219
 H         -4.2506299560        2.0895482572        2.1637196660
 H         -5.8604272023        0.2064338569       -2.7943571763
 H         -6.8559466768        1.6532806208       -2.5875902634
 H         -5.1215616531        2.7706324652       -1.3276646182
 H         -4.3745290607        2.0769768030       -2.7798142248
 O         -3.0490005278        0.3089176677       -1.7206075212
 C         -2.1415396656       -0.5583837961       -1.1228164173
 O         -1.4483426724       -1.1981188199       -1.9337467638
 H          0.2969739930        0.6634527088        0.6368508152
 C          0.8389648511       -0.2054081296        0.2797752408
 C          0.2380208832       -1.4565948898        0.3619279050
 C          0.9472579492       -2.5584300338       -0.0961853735
 C          2.2171166735       -2.4058180162       -0.6259131309
 C          2.8073534490       -1.1586516427       -0.7082652322
 C          2.1064530114       -0.0489286696       -0.2543834983
 N          2.7143990099        1.2276681583       -0.3324515629
 S          3.9453078383        1.4769147932        0.7926333844
 O          3.6543608031        0.8097786629        2.0428292416
 O          4.1199432051        2.9115138151        0.8611592660
 C          5.3735255718        0.7396771413        0.0309252750
 C          5.9463591977       -0.3828691997        0.5955745340
 C          7.0558968227       -0.9464859618       -0.0149005115
 C          7.5688902733       -0.3805631841       -1.1721610432
 C          6.9823794728        0.7483312472       -1.7253133440
 C          5.8734868589        1.3175820299       -1.1197838450
 H          5.3894790848        2.1967092625       -1.5115787360
 H          7.3847757400        1.1853278844       -2.6249625200
 H          8.4316401412       -0.8217208344       -1.6458452958
 H          7.5132163134       -1.8239419071        0.4131123192
 H          5.5086659136       -0.7892649112        1.4930066199
 H          2.0463097963        1.9814558403       -0.2452008058
 H          3.7903580764       -1.0342399823       -1.1321229801
 H          2.7521442856       -3.2715271861       -0.9849717402
 H          0.4991394629       -3.5373882000       -0.0560069059
 C         -1.1355174511       -1.5389526570        0.9795319037
 H         -1.0608428580       -1.1255567576        2.0005352104
 C         -1.6479408535       -2.9640923500        1.1303996999
 C         -3.1159940123       -3.2656669803        1.1091954043
 C         -2.2405344970       -3.7273741013       -0.0148678516
 H         -2.0248545685       -4.7829032288       -0.0931260406
 H         -2.3113878939       -3.2233608683       -0.9656977336
 H         -3.7937252749       -2.4443102414        0.9255490557
 H         -3.4987675756       -3.9992710289        1.8028041190
 H         -1.0552714217       -3.5330012926        1.8402524526
 O         -2.7910753623        0.3082378510        2.3316886786
