  62
        -98.93627250
 C         -1.7367902003       -0.4524666103        0.3636402901
 C         -2.8888858703       -0.5198513710        1.1811108600
 C         -4.1771415103       -0.6099634903        0.4779796999
 C         -4.1878261703       -0.6336719091       -0.8675272802
 C         -5.4199240103       -0.6308487782       -1.7273421602
 C         -6.0165357202        0.7902311518       -1.7837179789
 C         -7.3953320903        0.9224749613       -1.1364362588
 H         -7.6120171102        1.9889126812       -1.0438742878
 H         -8.1438859702        0.4913745419       -1.8044986992
 C         -7.5561738603        0.2603855900        0.2354365306
 H         -8.4744462503        0.6569294996        0.6739560110
 H         -7.7099560303       -0.8123856799        0.1098120896
 C         -6.4045571603        0.4780971090        1.2253386708
 H         -6.8335011803        0.6186059481        2.2196659910
 H         -5.8573910003        1.3900489192        0.9848687417
 C         -5.4153542203       -0.6982381411        1.3266249997
 H         -5.0453648904       -0.7547049821        2.3547315997
 H         -5.9384877104       -1.6346418009        1.1141722588
 H         -5.3177090602        1.4741919314       -1.2972745482
 H         -6.0953906702        1.1110267728       -2.8235309186
 H         -5.1218687103       -0.9572361973       -2.7237483005
 H         -6.1471853303       -1.3362205186       -1.3316761009
 O         -3.0570036103       -0.5808778384       -1.6182213201
 C         -1.8047429603       -0.4848306590       -1.0289749300
 O         -0.8578430203       -0.4386634382       -1.8354659599
 O         -2.8421047004       -0.4984503522        2.4413922800
 C         -0.3737632503       -0.3387198609        1.0201346202
 C          0.3344355197        0.9101771895        0.5564896014
 C         -0.3735101303        2.1081549096        0.4942402625
 C          0.2383934598        3.2703452000        0.0687649836
 C          1.5761935198        3.2689379203       -0.2860128164
 C          2.2967962697        2.0843146702       -0.2120446975
 C          1.6748408697        0.9146468998        0.2048090914
 H          2.2521871597        0.0069819798        0.2548703706
 N          3.6503769898        2.0450217905       -0.5757986475
 S          4.7309316097        1.1272746397        0.3101468317
 O          4.3823752297        1.0979183183        1.7114868517
 O          6.0281943997        1.6874047799       -0.0059380777
 C          4.6323260497       -0.5101956997       -0.3817308698
 C          4.8182109697       -1.5935328705        0.4542003591
 C          4.7898639396       -2.8704575800       -0.0845806421
 C          4.5767454697       -3.0406010887       -1.4436869922
 C          4.3942241897       -1.9419452979       -2.2697720012
 C          4.4261504897       -0.6625119084       -1.7383832500
 H          4.2817771698        0.2106665522       -2.3523545092
 H          4.2242274497       -2.0780186169       -3.3257349513
 H          4.5503892897       -4.0349382383       -1.8609171832
 H          4.9311249596       -3.7259469406        0.5569554071
 H          4.9679319196       -1.4158571115        1.5073564093
 H          4.0465176398        2.9328247408       -0.8476282066
 H          2.0568323698        4.1764410106       -0.6187783455
 H         -0.3274860702        4.1886053700        0.0180714445
 H         -1.4170036703        2.1133194593        0.7790142525
 H         -0.5740049504       -0.2351082619        2.0975198103
 C          0.4239805396       -1.6061709707        0.7947729990
 C          1.4487517196       -2.0464222317        1.7957709686
 C          0.1564544996       -2.7938038815        1.6682480679
 H          0.1705448096       -3.7763283811        1.2213808870
 H         -0.5829685304       -2.6783369223        2.4472480380
 H          2.3499795796       -2.5166069914        1.4324011082
 H          1.5979070796       -1.4249366925        2.6661519292
 H          0.6224347797       -1.7896380297       -0.2554857711
