  62
        -98.93334428
 C         -2.5240248982       -1.0152076111        0.3553982193
 C         -2.6419278315        0.1574370262        1.1358343463
 C         -3.5248167977        1.2224146319        0.6224971238
 C         -4.1361504457        1.0374052471       -0.5625865730
 C         -5.0490160351        1.9802867162       -1.3012278101
 C         -4.2925874027        3.1331452934       -1.9795096106
 C         -3.2237760667        3.7952303108       -1.1144061059
 H         -2.4940666922        3.0428185090       -0.8096276332
 H         -2.6973339895        4.5232228601       -1.7372265016
 C         -3.7477098210        4.5270035942        0.1190990447
 H         -4.4613195281        5.2920143771       -0.1945918985
 H         -2.8969785004        5.0359371014        0.5793193807
 C         -4.4093266455        3.6519392112        1.1863745110
 H         -5.4235381515        3.3835087759        0.9033069660
 H         -4.4909625923        4.2542994917        2.0958551246
 C         -3.6210183834        2.4011123094        1.5615620119
 H         -2.5895962755        2.6846539037        1.8001724004
 H         -4.0306954375        1.9977793564        2.4955125844
 H         -3.8010294143        2.7362750372       -2.8711712997
 H         -5.0202629038        3.8806900727       -2.3000082249
 H         -5.5471269436        1.3901851089       -2.0736836187
 H         -5.8141673039        2.3610424543       -0.6312421884
 O         -3.9570731909       -0.0934214061       -1.3031782027
 C         -3.1585600068       -1.1400785240       -0.8802034345
 O         -3.1059048907       -2.0966544728       -1.6753774164
 O         -2.0305155361        0.3183552570        2.2281995383
 C         -1.6413386363       -2.1409958152        0.8677054592
 C         -0.4029271254       -2.2180706441        0.0085404595
 C         -0.1523515214       -3.2458335667       -0.8898946580
 C          0.9932131779       -3.2280789418       -1.6676095202
 C          1.9085965137       -2.1973041455       -1.5642596763
 C          1.6718916798       -1.1678852457       -0.6612653178
 C          0.5246174140       -1.1881000641        0.1176462328
 H          0.3326515504       -0.3865054504        0.8200895625
 N          2.5908621639       -0.1060476537       -0.5534327168
 S          4.2300007752       -0.5174205948       -0.5050439710
 O          4.6853170140       -0.7329450461       -1.8556415041
 O          4.4394650413       -1.6143170768        0.4134886639
 C          4.9462569628        0.9805752637        0.1406103206
 C          5.2033934728        1.0766673477        1.4950375151
 C          5.7431279140        2.2522004226        1.9929127507
 C          6.0118831859        3.3065133139        1.1330197982
 C          5.7478899294        3.1949478059       -0.2241296205
 C          5.2093346583        2.0220827272       -0.7288154088
 H          4.9969734539        1.8865937795       -1.7764269784
 H          5.9607249291        4.0161288113       -0.8893791006
 H          6.4330098794        4.2196529786        1.5229903719
 H          5.9519923936        2.3407083089        3.0469257790
 H          4.9877680332        0.2283613965        2.1249125765
 H          2.3543231394        0.5187686728        0.2056337834
 H          2.8055626697       -2.1790037619       -2.1621485619
 H          1.1758790858       -4.0304779650       -2.3667289382
 H         -0.8583238537       -4.0530789012       -0.9916999648
 H         -1.3311719744       -1.8281714304        1.8749341888
 C         -2.4001351396       -3.4451688554        0.9775655643
 C         -1.8552269763       -4.5432346603        1.8395628047
 C         -3.0757971465       -3.7881635057        2.2700758738
 H         -4.0320276999       -4.2880894549        2.2338538671
 H         -2.9818094254       -3.0850378022        3.0847955960
 H         -1.9719146412       -5.5643152967        1.5101426650
 H         -0.9292853702       -4.3530547438        2.3612312689
 H         -2.9110894509       -3.7199458461        0.0628484315
