  62
        -98.93550455
 C          0.7695532288        1.2957905908       -0.3880474403
 C          1.6358985590        1.0560987815        0.7089095397
 C          2.6661973892        0.0209872716        0.5347235099
 C          2.7178826692       -0.6603147588       -0.6216834598
 C          3.7134315694       -1.7106543187       -1.0477531895
 C          5.1892135094       -1.4650663582       -0.7006205398
 C          5.6261626491        0.0070623019       -0.6915033705
 H          6.5165109189        0.1171458019       -1.3135721106
 H          4.8461557488        0.6336957015       -1.1273764506
 C          5.9665085391        0.5173050525        0.7110481393
 H          6.5424176794       -0.2507177571        1.2320160095
 H          6.6065757489        1.3981676727        0.6195125088
 C          4.7679267792        0.9152988426        1.5718079493
 H          4.3275678689        1.8399678323        1.1896445790
 H          5.1328828092        1.1281883731        2.5794639791
 C          3.6438901994       -0.1290056577        1.6644356899
 H          4.0480137997       -1.1367469075        1.7151525702
 H          3.0790354195        0.0705970526        2.5786955699
 H          5.4112834497       -1.9040238778        0.2709548003
 H          5.7805515295       -2.0144735384       -1.4351410797
 H          3.4113503697       -2.6722823486       -0.6265491691
 H          3.5998541793       -1.7832669492       -2.1320850995
 O          1.8004510590       -0.4718239094       -1.6108604697
 C          0.8058451688        0.4979960304       -1.5308620600
 O          0.0647810387        0.5313462898       -2.5295936399
 H         -1.8130443010        0.3305965600       -0.6710775495
 C         -2.1316738610        0.9148852203        0.1797747403
 C         -1.4217326413        2.0535649306        0.5365653397
 C         -1.8541277913        2.8043686409        1.6234165395
 C         -2.9745472911        2.4242642610        2.3397670498
 C         -3.6757488509        1.2854867806        1.9899763403
 C         -3.2508540408        0.5266878303        0.9034004906
 N         -3.9521173306       -0.6285289900        0.5434811611
 S         -3.3122999504       -1.8208574502       -0.4180113085
 O         -3.2764800407       -1.3916412808       -1.7926343386
 O         -4.1533449101       -2.9695792603       -0.1473521379
 C         -1.6638585803       -2.1723285796        0.1674687214
 C         -1.3245184201       -1.9925909490        1.4933801813
 C         -0.0504997400       -2.3428592885        1.9107203813
 C          0.8490338100       -2.8877562586        1.0088451114
 C          0.4879101699       -3.0761535792       -0.3158517885
 C         -0.7758087303       -2.7058713197       -0.7437036585
 H         -1.0859021404       -2.8083936602       -1.7716649484
 H          1.1811939999       -3.5026650793       -1.0229153384
 H          1.8354617101       -3.1665562282        1.3441584213
 H          0.2359114001       -2.1903933280        2.9387807612
 H         -2.0383727001       -1.5763668889        2.1853035112
 H         -4.6296212804       -0.9691456999        1.2080216214
 H         -4.5459823107        0.9794710306        2.5496765106
 H         -3.3004235111        3.0138770012        3.1827551796
 H         -1.2952117215        3.6812040412        1.9141069391
 C         -0.1926513315        2.4607224906       -0.2328484806
 H          0.3490701784        3.1874320510        0.3955779490
 C         -0.5212153419        3.1645237200       -1.5408218509
 C         -1.8312674519        3.0319381894       -2.2510097906
 C         -1.4879731421        4.3120580998       -1.5534408612
 H         -1.2536521324        5.1803753796       -2.1503047415
 H         -2.0101517621        4.5323674900       -0.6345498512
 H         -1.8107688721        2.9998109590       -3.3298103906
 H         -2.5886546117        2.3951109994       -1.8210293703
 H          0.3539135380        3.2601481400       -2.1760176810
 O          1.5646214190        1.7063013919        1.7850462194
