  62
        -98.93194774
 C         -2.5506508152       -0.9943876352        0.4963446664
 C         -2.8676654047        0.2504473106        1.0949776421
 C         -4.1714382027        0.8558701373        0.7650439370
 C         -4.9884661221        0.2008758387       -0.0803478080
 C         -6.3454215480        0.6153032031       -0.5852521380
 C         -6.2726064245        1.7124152004       -1.6582355609
 C         -5.3156766359        2.8575517040       -1.3389180797
 H         -5.2841746302        3.5162148322       -2.2109192603
 H         -4.3100617782        2.4559532797       -1.2011073086
 C         -5.6966315834        3.7043607051       -0.1267435536
 H         -6.6969282808        4.1163027981       -0.2774854502
 H         -4.9958109456        4.5420509490       -0.0849509632
 C         -5.6613459024        2.9910618742        1.2271327400
 H         -6.5456358279        2.3764589185        1.3728522494
 H         -5.6896476568        3.7630146476        2.0016615275
 C         -4.4030741909        2.1662675759        1.4782854331
 H         -4.3474124843        1.9304511787        2.5478060831
 H         -3.5207940069        2.7839507892        1.2749970564
 H         -7.2778582769        2.1072083889       -1.8156232123
 H         -5.9409303314        1.2513441298       -2.5918620006
 H         -6.9735431933        0.9272616058        0.2439059118
 H         -6.7977266933       -0.2746325137       -1.0286364086
 O         -4.6387448547       -0.9891593285       -0.6432418856
 C         -3.4329667356       -1.6161743589       -0.3867080086
 O         -3.2949942304       -2.6942186095       -0.9977914237
 O         -2.0881611047        0.8419874774        1.8911185703
 C         -1.2138333120       -1.6095333587        0.8719717273
 C         -0.1600874644       -1.3366695994       -0.1757675242
 C         -0.2629296583       -1.8542637539       -1.4625528470
 C          0.7244902885       -1.6028343369       -2.3978118216
 C          1.8307075167       -0.8374406571       -2.0731574559
 C          1.9446827684       -0.3178471980       -0.7909345872
 C          0.9521384812       -0.5731375749        0.1479568972
 H          1.0367583335       -0.1569098637        1.1429021680
 N          3.0576554690        0.4738887719       -0.4568927458
 S          4.5687309440       -0.0434160259       -1.0104805665
 O          4.7389233226        0.4174357408       -2.3657490412
 O          4.7099603871       -1.4672013687       -0.8050893883
 C          5.6603441559        0.8535667046        0.0751009914
 C          6.1695259286        0.2208146546        1.1933079676
 C          7.0025451798        0.9306253846        2.0437641981
 C          7.3078435300        2.2542520810        1.7644938298
 C          6.7886542825        2.8756480093        0.6382625815
 C          5.9561423832        2.1715870988       -0.2170566609
 H          5.5379449864        2.6097293529       -1.1081645358
 H          7.0309320049        3.9039857863        0.4236938590
 H          7.9570865600        2.8040262085        2.4274779277
 H          7.4100699992        0.4495377168        2.9183429135
 H          5.9130105079       -0.8122729880        1.3656104636
 H          3.0834334335        0.7035929804        0.5271743196
 H          2.6090607126       -0.6421557499       -2.7934460985
 H          0.6331608831       -2.0094409279       -3.3941348415
 H         -1.1271652140       -2.4450035460       -1.7246484090
 H         -0.9111715572       -1.0871131219        1.7897099564
 C         -1.2956968956       -3.0933829932        1.1733045239
 C         -0.2229277074       -3.7226537308        2.0085463419
 C         -1.6011910520       -3.5426031424        2.5691860369
 H         -2.2236794568       -4.4142134754        2.7041253191
 H         -1.7514466172       -2.7788989552        3.3184557332
 H          0.1059073345       -4.7193329277        1.7576239316
 H          0.5633108178       -3.0818077381        2.3783030466
 H         -1.7097806780       -3.6763550058        0.3615141930
