  62
        -98.94081643
 C         -2.6574013303       -1.1868210840       -0.3763096225
 C         -2.1876155755       -0.0139254113       -1.0157690677
 C         -3.1096489620        1.1319508605       -1.0087514913
 C         -4.3156320154        1.0086693412       -0.4257529740
 C         -5.3267287624        2.1104704160       -0.3004292161
 C         -5.1461555426        2.8819246367        1.0143634736
 C         -3.7050322506        3.3152964053        1.2846192220
 H         -3.7045144712        3.8775413357        2.2210648955
 H         -3.0868157383        2.4283993815        1.4450379934
 C         -3.0805130269        4.1721025106        0.1745507504
 H         -2.5556048842        5.0117110417        0.6350956271
 H         -3.8655599108        4.5876210449       -0.4584410343
 C         -2.0616683148        3.4371097824       -0.6987332195
 H         -1.5297746318        4.1814334955       -1.2976521244
 H         -1.3216250489        2.9422961473       -0.0631079720
 C         -2.6408491169        2.3984924644       -1.6678794733
 H         -3.4446970064        2.8498033330       -2.2529429345
 H         -1.8406474150        2.1016602917       -2.3520392830
 H         -5.7930957632        3.7606813866        0.9909763324
 H         -5.4704021211        2.2425220560        1.8386251698
 H         -6.3231686067        1.6658714604       -0.3159893427
 H         -5.2272183298        2.7864583144       -1.1472882068
 O         -4.7363162787       -0.1376445635        0.1671123387
 C         -3.9155542339       -1.2502092988        0.2268602814
 O         -4.4132229490       -2.2230060919        0.8283510411
 O         -1.0629268752        0.0815718717       -1.5742033463
 C         -1.7826504697       -2.4266763537       -0.2696839494
 C         -0.6182149229       -2.0874840490        0.6288284569
 C         -0.8227433125       -2.0441957703        2.0055193546
 C          0.1949242916       -1.6607838961        2.8581546679
 C          1.4354653754       -1.3048950762        2.3569586253
 C          1.6453901898       -1.3354233512        0.9855258968
 C          0.6258914638       -1.7371770538        0.1308131941
 H          0.7976252171       -1.7417860616       -0.9336853481
 N          2.9023787727       -0.9751085627        0.4601104056
 S          3.6115188849        0.4283140172        1.0808984947
 O          4.2370033212        0.1013599480        2.3387815919
 O          2.6496078677        1.5074478377        1.1192642033
 C          4.8626438875        0.7421020077       -0.1482015250
 C          4.5659331652        1.5709590313       -1.2134840184
 C          5.5328088091        1.7877946714       -2.1826918365
 C          6.7709497227        1.1726981181       -2.0722645910
 C          7.0530399809        0.3424348565       -0.9976800655
 C          6.0914984639        0.1223418047       -0.0243381932
 H          6.2672034819       -0.5069933776        0.8322859621
 H          8.0172863737       -0.1324732585       -0.9152570315
 H          7.5209386772        1.3438166426       -2.8282594779
 H          5.3163343753        2.4339844119       -3.0182112726
 H          3.5923499636        2.0336542452       -1.2556606819
 H          2.8745138418       -0.9279047235       -0.5502397243
 H          2.2327491091       -0.9855507938        3.0085310741
 H          0.0219297063       -1.6314167841        3.9237768855
 H         -1.7987055194       -2.3002938066        2.3955555408
 H         -2.3944457777       -3.1844611119        0.2374713200
 C         -1.3834893542       -2.9541347980       -1.6314187236
 C         -0.8297561290       -4.3416579878       -1.7467191017
 C         -2.2030773555       -4.0371411835       -2.2631059217
 H         -2.3587850849       -4.0074512973       -3.3311089080
 H         -3.0533294227       -4.4073670572       -1.7090293093
 H         -0.0415989071       -4.5261779291       -2.4605083451
 H         -0.7461206581       -4.9197700432       -0.8388895869
 H         -0.9865449848       -2.1903848198       -2.2882775088
