  62
        -98.93825751
 C         -2.1994394605       -1.1667574412        0.2194017209
 C         -2.3247753055       -0.0737185121       -0.6686135584
 C         -3.1603957816        1.0540482549       -0.2116633319
 C         -3.7247525392        1.0064300840        1.0067802867
 C         -4.6268027096        2.0241479035        1.6487088186
 C         -6.1052703047        1.6924815331        1.3836213943
 C         -6.6716113803        2.2661796282        0.0855246933
 H         -7.6754148482        1.8545829437       -0.0415038894
 H         -6.7712810497        3.3490264019        0.1851959059
 C         -5.8532051623        1.9641203938       -1.1720898832
 H         -5.5266062958        0.9227824494       -1.1567644685
 H         -6.5088063407        2.0851373868       -2.0365007982
 C         -4.6376254867        2.8885260977       -1.3368711763
 H         -4.7186760569        3.7169621904       -0.6336232314
 H         -4.6497832432        3.3296365337       -2.3358890462
 C         -3.2729304082        2.2051496017       -1.1748438244
 H         -2.9583779602        1.7925595733       -2.1388931137
 H         -2.5236238818        2.9575523111       -0.9031349258
 H         -6.2088818570        0.6044810637        1.3821811193
 H         -6.7033679976        2.0766663318        2.2122842820
 H         -4.4438110720        1.9622315922        2.7235825038
 H         -4.3798797731        3.0261451380        1.3106996391
 O         -3.5723574029       -0.0614973221        1.8368716947
 C         -2.8175156071       -1.1578422616        1.4743596227
 O         -2.7729486961       -2.0560592852        2.3381192857
 H          0.2700869671       -0.7793682647       -1.5210176728
 C          0.7833575248       -1.2148326174       -0.6767051725
 C          0.0982632365       -2.0814519895        0.1631886726
 C          0.7644389305       -2.6014471622        1.2669482432
 C          2.0815412451       -2.2605533725        1.5202044978
 C          2.7571967448       -1.3883601125        0.6851833452
 C          2.0960311185       -0.8552632039       -0.4130868929
 N          2.7665446431        0.0609545552       -1.2509732458
 S          3.2928540716        1.4737070129       -0.5021014346
 O          2.4713933508        1.8053031103        0.6406544668
 O          3.3657287263        2.4654952112       -1.5530958222
 C          4.9451922156        1.0737187846        0.0282728102
 C          5.2806986762        1.1602186250        1.3651016999
 C          6.5744135123        0.8467573947        1.7525916067
 C          7.5040317649        0.4551072409        0.8013557144
 C          7.1515169115        0.3757104040       -0.5378870583
 C          5.8604427821        0.6885380299       -0.9319768421
 H          5.5452087426        0.6443306706       -1.9610153922
 H          7.8774987021        0.0711211488       -1.2743927665
 H          8.5094026239        0.2105446918        1.1058465531
 H          6.8499914644        0.9082882313        2.7931605775
 H          4.5217548618        1.4634989924        2.0687585728
 H          2.2246065788        0.3005078838       -2.0705442323
 H          3.7798733000       -1.1106971931        0.8825079134
 H          2.5856347368       -2.6734827909        2.3806662397
 H          0.2327638875       -3.2593233878        1.9393342627
 C         -1.3577042592       -2.3998955647       -0.0806794157
 H         -1.6640016070       -3.1514699073        0.6588961325
 C         -1.5943037245       -2.9678093725       -1.4657215132
 C         -1.2009931679       -4.3867576328       -1.7418511793
 C         -2.6497946269       -4.0134570983       -1.6559807196
 H         -3.2349541625       -3.9948368410       -2.5631693977
 H         -3.2068970727       -4.3255550843       -0.7843763205
 H         -0.7886051025       -4.6272651011       -2.7095961689
 H         -0.7754413993       -4.9541391093       -0.9280477138
 H         -1.4666900992       -2.2445859712       -2.2598273099
 O         -1.7787927367       -0.0142672831       -1.8046537698
