  62
        -98.94486637
 C         -2.1745661495       -1.3474379792        0.1290406595
 C         -2.0906859945       -0.5073923425       -1.0075885480
 C         -2.9026712029        0.7184734266       -0.9612520521
 C         -3.6646441291        0.9731105397        0.1172063572
 C         -4.4747417388        2.2191972503        0.3234270063
 C         -3.6579760967        3.2958163757        1.0525457039
 C         -2.2712736370        3.5335908732        0.4539410691
 H         -1.8043981989        4.3342146254        1.0313300123
 H         -1.6639782150        2.6364195116        0.5947128834
 C         -2.2793534408        3.9146618334       -1.0334162154
 H         -3.2739144785        4.2561248646       -1.3226480390
 H         -1.5961222978        4.7531133388       -1.1868081272
 C         -1.8365184641        2.7964014233       -1.9792836611
 H         -0.8849652737        2.3791782643       -1.6404244692
 H         -1.6711923093        3.2327063317       -2.9682078254
 C         -2.8277666379        1.6384359884       -2.1476072082
 H         -3.8161410341        2.0299799783       -2.3958631243
 H         -2.4824909982        1.0238938513       -2.9841598159
 H         -4.2273208207        4.2270048944        1.0398810146
 H         -3.5324099993        2.9881307959        2.0931046110
 H         -4.8105827132        2.5934027916       -0.6417206872
 H         -5.3476240527        1.9664987370        0.9276111832
 O         -3.7399515055        0.1325399795        1.1794044024
 C         -2.9977208445       -1.0336159174        1.2163700727
 O         -3.1570092421       -1.7059295420        2.2543991895
 H          0.5634035566       -1.7078953931       -1.3990605806
 C          0.9284046462       -1.8557996644       -0.3944442724
 C          0.0621578204       -2.3242624573        0.5827993796
 C          0.5382484217       -2.4644651070        1.8819991210
 C          1.8530218845       -2.1605415023        2.1876052667
 C          2.7174407173       -1.7044066615        1.2082251420
 C          2.2452772790       -1.5402148229       -0.0876862701
 N          3.1017782820       -1.0673522993       -1.0954230799
 S          4.1589099625        0.1828261091       -0.7675552731
 O          4.5056417141        0.7293930962       -2.0596556370
 O          5.2572690976       -0.3124227187        0.0248086355
 C          3.2283505653        1.3780295929        0.1742422765
 C          3.4819012648        1.5461559834        1.5202681309
 C          2.7305968476        2.4659209480        2.2344793381
 C          1.7484527736        3.2027275546        1.5917235598
 C          1.5124793967        3.0301231422        0.2362849071
 C          2.2529090228        2.1042653568       -0.4801157185
 H          2.0976143381        1.9466611589       -1.5358183052
 H          0.7535799727        3.6118315030       -0.2617050436
 H          1.1647603426        3.9196839223        2.1472879790
 H          2.9147225210        2.6057361442        3.2874902052
 H          4.2645974716        0.9654042635        1.9798428762
 H          2.6432301058       -0.9354934982       -1.9849530124
 H          3.7486880711       -1.4806331291        1.4264742381
 H          2.2107033097       -2.2829016577        3.1985963861
 H         -0.1363250944       -2.8061171188        2.6540428010
 C         -1.3799288423       -2.6388400710        0.2614944821
 H         -1.8081379886       -3.1595807301        1.1279809802
 C         -1.5151816983       -3.5400248213       -0.9499557164
 C         -1.1600988472       -4.9892357436       -0.8172153820
 C         -2.5934815395       -4.5792756143       -0.9705554734
 H         -3.0932071719       -4.7845508054       -1.9054783353
 H         -3.2395729200       -4.6476766816       -0.1072347201
 H         -0.6730008161       -5.4792483437       -1.6463095419
 H         -0.8334963827       -5.3362578512        0.1515677387
 H         -1.2876965264       -3.0493226843       -1.8867467109
 O         -1.3825720019       -0.7449563351       -2.0228808856
