  62
        -98.94065083
 C         -1.6595298007       -0.8825456604       -1.0134251607
 C         -1.6704277205        0.2764640398       -0.1971538309
 C         -2.9822984703        0.9246533001       -0.0274390112
 C         -4.0641147804        0.4088574803       -0.6365053612
 C         -5.4616427403        0.9394009107       -0.5034000315
 C         -6.2064391406        0.2547757711        0.6512423486
 C         -5.4168124408        0.2178214011        1.9598395987
 H         -4.5396425409       -0.4203462891        1.8295467289
 H         -6.0521437210       -0.2596863185        2.7090999787
 C         -4.9694396505        1.5945269211        2.4707742584
 H         -5.1696835506        1.6511553414        3.5428692684
 H         -5.5582823502        2.3766843112        1.9901391682
 C         -3.4806140204        1.8900620307        2.2790927886
 H         -2.8883194406        1.0614917206        2.6758109188
 H         -3.2338327602        2.7792026808        2.8653422984
 C         -3.0328351901        2.1537250903        0.8359053686
 H         -2.0086723200        2.5358028101        0.8713786186
 H         -3.6710444899        2.9165836404        0.3856263383
 H         -6.4303221408       -0.7734976189        0.3575258387
 H         -7.1525142005        0.7757969414        0.8093305983
 H         -5.4232781600        2.0143440607       -0.3384909817
 H         -5.9949382202        0.7424785306       -1.4350431115
 O         -4.0140426706       -0.7044030999       -1.4125458510
 C         -2.8236653707       -1.3876726502       -1.5983549307
 O         -2.9305824409       -2.4184736703       -2.2930926405
 H          2.0671256593       -0.7216429412       -0.4471932502
 C          1.5805090190       -1.3132856409        0.3087385398
 C          0.3385533889       -1.8728827207        0.0602004298
 C         -0.2718017914       -2.6211228003        1.0635801398
 C          0.3476373684       -2.7995525802        2.2852045300
 C          1.5879516385       -2.2373875205        2.5314503400
 C          2.2027520089       -1.4845990409        1.5376921099
 N          3.4305636890       -0.8647900011        1.7783198800
 S          4.4339765793       -0.2945389916        0.5867027400
 O          4.5827254092       -1.2462149019       -0.4910954798
 O          5.6550111593        0.0478354482        1.2861203200
 C          3.6741367597        1.1975961485       -0.0222659604
 C          2.8256873098        1.9280894188        0.7840200393
 C          2.2802193802        3.1014954289        0.2889462890
 C          2.5958872904        3.5280823585       -0.9911461610
 C          3.4552282603        2.7865284982       -1.7868761808
 C          3.9995017600        1.6091803081       -1.2999219405
 H          4.6605311699        0.9941546478       -1.8902867103
 H          3.6978273405        3.1184429979       -2.7839765008
 H          2.1669538007        4.4411421386       -1.3731955612
 H          1.6041529502        3.6738049092        0.9032805288
 H          2.5826426196        1.5702829191        1.7702885094
 H          3.8865136588       -1.0609111611        2.6545969200
 H          2.0710022884       -2.3698629904        3.4874199901
 H         -0.1380100418       -3.3808120400        3.0548471300
 H         -1.2452449815       -3.0537074101        0.8733655098
 C         -0.3884797209       -1.6821082908       -1.2472139004
 H         -0.7333252411       -2.6725356807       -1.5883613002
 C          0.5023555094       -1.1306356212       -2.3501411404
 C         -0.0893403903       -0.4449803613       -3.5443993406
 C          0.7183522498        0.3375066987       -2.5550828106
 H          1.7045228299        0.6699398784       -2.8451986406
 H          0.2104115199        1.0178617390       -1.8906676508
 H         -1.1606187602       -0.3053511610       -3.5583814607
 H          0.3370287098       -0.6472606916       -4.5154031105
 H          1.3553956393       -1.7767110814       -2.5389891701
 O         -0.6546958604        0.7573174696        0.3649020791
