  62
        -98.93313691
 C          2.3954551106        1.0703416452        0.3369171261
 C          2.6028389570       -0.1526333359        1.0218694992
 C          3.8484026374       -0.8907367240        0.7378966309
 C          4.7233309829       -0.3633569020       -0.1383087708
 C          6.0313895267       -0.9357104538       -0.6167527588
 C          5.8448860389       -2.0756986407       -1.6301279268
 C          4.7757073872       -3.0982882432       -1.2552348126
 H          3.8170450922       -2.5892163220       -1.1386583502
 H          4.6731545116       -3.7934332501       -2.0926910095
 C          5.0710271018       -3.9182098827       -0.0014595319
 H          4.2840740822       -4.6718233896        0.0849412607
 H          6.0202376323       -4.4427089255       -0.1311986647
 C          5.1223241152       -3.1366066825        1.3134771519
 H          6.0669740390       -2.6109327752        1.4237617501
 H          5.0764609340       -3.8660104681        2.1274415993
 C          3.9590499975       -2.1730997498        1.5270818016
 H          3.9450291372       -1.8697887326        2.5811218184
 H          3.0143570161       -2.7073962402        1.3721663087
 H          6.8038142605       -2.5797190442       -1.7616486402
 H          5.5608839629       -1.6332386472       -2.5879876278
 H          6.5681896517       -0.1200353484       -1.1059602401
 H          6.6273999448       -1.2640907890        0.2294343153
 O          4.4893350702        0.8228352822       -0.7653221976
 C          3.3416641774        1.5665105052       -0.5594805999
 O          3.3092651599        2.6232875080       -1.2191620626
 O          1.7766041148       -0.6206994059        1.8532342222
 C          1.1035204290        1.8146567647        0.6274552177
 C          0.0989979974        1.6164496352       -0.4831056666
 C          0.2306616118        2.2523883386       -1.7136306999
 C         -0.7179762460        2.0637621478       -2.7018211250
 C         -1.8197849101        1.2568192554       -2.4802396862
 C         -1.9533172056        0.6056622387       -1.2592984272
 C         -0.9918547874        0.7840453729       -0.2743358219
 H         -1.1032488085        0.2656414059        0.6674295707
 N         -3.0456342055       -0.2420338444       -1.0177451566
 S         -3.6707644283       -0.3350123609        0.5472426196
 O         -3.7387248963        0.9847878005        1.1331527407
 O         -2.9315995575       -1.3272885754        1.2864207280
 C         -5.3118160493       -0.9417503718        0.2021549362
 C         -5.4855210478       -2.2938193997       -0.0267889421
 C         -6.7543527829       -2.7648634429       -0.3244511492
 C         -7.8221596719       -1.8816667012       -0.3878057968
 C         -7.6327325546       -0.5280430219       -0.1534831045
 C         -6.3659200185       -0.0498561474        0.1429987976
 H         -6.1719832825        0.9921496022        0.3405176542
 H         -8.4652771750        0.1553007996       -0.1998672311
 H         -8.8087423482       -2.2514903525       -0.6183062325
 H         -6.9059838912       -3.8169693638       -0.5041254533
 H         -4.6279010440       -2.9425549335        0.0439442925
 H         -3.7741190734       -0.1553375438       -1.7130460497
 H         -2.5663041149        1.1233893187       -3.2485098309
 H         -0.6039151318        2.5618178309       -3.6528809233
 H          1.0914059530        2.8770252316       -1.8930285471
 H          0.6937097660        1.3342763953        1.5271258089
 C          1.3107181428        3.2869141460        0.9250766587
 C          0.2112163973        4.0427806421        1.6069204198
 C          1.4775980746        3.7312294073        2.3454707335
 H          2.1647081388        4.5372160441        2.5551298544
 H          1.4462633885        2.9723865123        3.1140908234
 H          0.0269288405        5.0639002866        1.3104753186
 H         -0.6811012910        3.4934188355        1.8706834803
 H          1.8892445419        3.8049919178        0.1716759335
