  62
        -98.94551301
 C         -2.2385706894       -0.9775649381        0.2070101336
 C         -1.5688502725       -0.2552444600       -0.8119203590
 C         -2.0095997812        1.1330707578       -1.0145972777
 C         -2.9505349078        1.6536228939       -0.2082967379
 C         -3.4808403437        3.0551393777       -0.2933249195
 C         -2.6937810516        4.0175052019        0.6056271185
 C         -1.1769531349        3.9318626867        0.4332953189
 H         -0.7334625726        4.6950065731        1.0777525116
 H         -0.8190003776        2.9661393179        0.7991092109
 C         -0.6859891583        4.1318330170       -1.0072664959
 H         -1.4595059812        4.6206763850       -1.6018155096
 H          0.1806200513        4.7961805954       -0.9887724963
 C         -0.2424996435        2.8406576268       -1.6975572721
 H          0.4225316063        2.2916274684       -1.0261914021
 H          0.3306989925        3.1071429716       -2.5898227079
 C         -1.3722336982        1.9007364994       -2.1384298619
 H         -2.1248701667        2.4643041869       -2.6948251165
 H         -0.9392655767        1.1509550670       -2.8071128573
 H         -3.0275004521        5.0354069810        0.3931808962
 H         -2.9318113233        3.7928298864        1.6481469365
 H         -3.4339832316        3.3901498523       -1.3279062270
 H         -4.5239660339        3.0451804450        0.0289547150
 O         -3.5166428415        0.9553555681        0.8105848635
 C         -3.1612275473       -0.3607801216        1.0537649410
 O         -3.7299374435       -0.8689934743        2.0431906176
 H         -0.2512396148       -1.0700218587        2.0740265473
 C          0.3045735208       -1.7346867300        1.4223660512
 C         -0.3882465337       -2.5609256709        0.5454253032
 C          0.3402818727       -3.4005801744       -0.2863476295
 C          1.7245310847       -3.3831423984       -0.2641147623
 C          2.4086194657       -2.5140006185        0.5669540006
 C          1.6864618755       -1.6861645307        1.4150602686
 N          2.3887827570       -0.7187705026        2.1960216175
 S          2.3094300549        0.7907845244        1.4351804502
 O          3.0343119118        1.7013356120        2.2977048258
 O          0.9412719361        1.1707133595        1.1550991451
 C          3.2209627794        0.5017800589       -0.0609177964
 C          4.5915544235        0.6733519575       -0.0260393234
 C          5.3296040613        0.4064961885       -1.1672170845
 C          4.6865290813       -0.0310982175       -2.3158381212
 C          3.3110451413       -0.2017503856       -2.3312083060
 C          2.5636547105        0.0637843013       -1.1934759208
 H          1.4925212295       -0.0724583042       -1.1802898836
 H          2.8069292902       -0.5468201362       -3.2195303562
 H          5.2604545381       -0.2417835194       -3.2045854443
 H          6.3997076380        0.5373913820       -1.1572182047
 H          5.0421702734        1.0174961845        0.8904093881
 H          1.9985656136       -0.6126856530        3.1239334224
 H          3.4850965788       -2.4594085688        0.5627810504
 H          2.2767829565       -4.0334906937       -0.9245847345
 H         -0.1772568118       -4.0416342536       -0.9810458166
 C         -1.8895226335       -2.4254443255        0.5212050643
 H         -2.2640891250       -2.5919816053        1.5451923103
 C         -2.5818832097       -3.4461786697       -0.3683792755
 C         -3.9273789487       -3.1572367656       -0.9626186643
 C         -2.7232738703       -3.2578172979       -1.8476215818
 H         -2.6299870789       -4.1252560895       -2.4844022161
 H         -2.3221041260       -2.3538248619       -2.2767269849
 H         -4.6576046308       -3.9520425735       -0.9892864131
 H         -4.3526728917       -2.1801238217       -0.7827261058
 H         -2.4217518594       -4.4610211609       -0.0173839065
 O         -0.6626682777       -0.7385779817       -1.5376543433
