  62
        -98.94351154
 C          1.8142429787       -0.5464299539       -0.3196215942
 C          2.9564270432       -0.6365545816       -1.1496386782
 C          4.2456663082       -0.7597740773       -0.4567714911
 C          4.2679940531       -0.7933464321        0.8885075300
 C          5.5142997874       -0.8575478930        1.7222408984
 C          6.0150528724        0.5486523562        2.0808023640
 C          6.1086435657        1.4948923103        0.8838002885
 H          5.1031355378        1.6878852268        0.5027137530
 H          6.5004562615        2.4461182974        1.2505624651
 C          6.9946659820        0.9845022390       -0.2611882829
 H          7.6500082029        0.1922342095        0.1023699670
 H          7.6331288615        1.8025393149       -0.6015208754
 C          6.2244909560        0.4826756202       -1.4840514507
 H          5.5010910064        1.2396802757       -1.7978635945
 H          6.9359678191        0.3519838951       -2.3038320503
 C          5.4827749089       -0.8481420694       -1.3056855300
 H          5.1448529799       -1.1742241317       -2.2937975243
 H          6.1681666186       -1.6012023981       -0.9116315871
 H          5.3278376953        0.9855176858        2.8090096774
 H          6.9956674780        0.4566235735        2.5512391743
 H          6.2834475920       -1.4002293829        1.1761865272
 H          5.2849415935       -1.3971849790        2.6425180087
 O          3.1477340518       -0.7227445410        1.6516685068
 C          1.8942170502       -0.5878295614        1.0725287465
 O          0.9552670264       -0.5203710114        1.8869983826
 O          2.9004130980       -0.6097222407       -2.4092679359
 C          0.4479762838       -0.4035250698       -0.9629606218
 C         -0.2354185206        0.8582519877       -0.4968590940
 C          0.5001309738        2.0374133636       -0.4051199904
 C         -0.0923771118        3.2103482237        0.0184891389
 C         -1.4381429083        3.2395209143        0.3399031901
 C         -2.1863418895        2.0743809414        0.2354413804
 C         -1.5836228621        0.8931392122       -0.1768276142
 H         -2.1826189739        0.0010720990       -0.2507950169
 N         -3.5498307036        2.0670061904        0.5621348604
 S         -4.6300484411        1.1900419874       -0.3649900435
 O         -4.2350979012        1.1534488874       -1.7536606360
 O         -5.9176158423        1.7924806274       -0.0897899303
 C         -4.6102677219       -0.4511453594        0.3245031098
 C         -4.7934041815       -1.5279973529       -0.5202703260
 C         -4.8298366212       -2.8051068670        0.0176898879
 C         -4.6828663586       -2.9818121939        1.3846933354
 C         -4.5011148752       -1.8895351403        2.2194179512
 C         -4.4688252141       -0.6098444173        1.6887289926
 H         -4.3246624311        0.2588621899        2.3091590622
 H         -4.3827394186       -2.0309035118        3.2817012035
 H         -4.7081448552       -3.9763759597        1.8014952486
 H         -4.9706731432       -3.6556231190       -0.6305195585
 H         -4.8909623032       -1.3459754288       -1.5787733878
 H         -3.9294021884        2.9621942200        0.8334763802
 H         -1.9041050894        4.1557474162        0.6696716860
 H          0.4953304056        4.1130995530        0.0931811020
 H          1.5498520484        2.0198408192       -0.6654185805
 H          0.6407082968       -0.3048637328       -2.0424016623
 C         -0.3718753619       -1.6556727980       -0.7298628601
 C         -1.3923636744       -2.0950946983       -1.7354799471
 C         -0.1116423080       -2.8581055977       -1.5851649007
 H         -0.1432352099       -3.8344411381       -1.1258268704
 H          0.6374742381       -2.7624963614       -2.3576590598
 H         -2.3033962088       -2.5486321545       -1.3753156443
 H         -1.5240894230       -1.4834988644       -2.6156810087
 H         -0.5828592293       -1.8230220677        0.3206194575
