  62
        -98.94486894
 C          2.2068847885        1.3285969219        0.1447518919
 C          2.1104771405        0.4998391995       -0.9991464945
 C          2.9252387846       -0.7247794806       -0.9747281121
 C          3.7043665324       -0.9859863717        0.0898388294
 C          4.5191600375       -2.2325419837        0.2738617314
 C          3.7141435967       -3.3148122595        1.0078269933
 C          2.3159233246       -3.5433831657        0.4329668095
 H          1.8552839790       -4.3442505670        1.0152271102
 H          1.7171046896       -2.6430383693        0.5893136627
 C          2.2952183076       -3.9177901267       -1.0561306667
 H          3.2826956073       -4.2633341297       -1.3641959248
 H          1.6041810577       -4.7514329510       -1.2008065624
 C          1.8418946990       -2.7939363169       -1.9903814381
 H          0.8953698536       -2.3768590770       -1.6374869951
 H          1.6621908964       -3.2253531139       -2.9789347393
 C          2.8324721415       -1.6365278005       -2.1661159986
 H          3.8163950587       -2.0280941622       -2.4311656648
 H          2.4759656096       -1.0162263046       -2.9936738474
 H          3.6082906798       -3.0168122905        2.0533953596
 H          4.2808642516       -4.2470888692        0.9758260643
 H          5.4012354471       -1.9835710179        0.8660685620
 H          4.8399015207       -2.5995051656       -0.6991635351
 O          3.7937408204       -0.1540295677        1.1577035708
 C          3.0462616363        1.0079947207        1.2174306050
 O          3.2160894642        1.6699929821        2.2603368923
 O          1.3886454594        0.7462429792       -2.0023834511
 C          1.4068497019        2.6143538415        0.2978937505
 C         -0.0335281082        2.2841327827        0.6107525143
 C         -0.4968075525        2.3475589150        1.9208751822
 C         -1.8081933435        2.0253630119        2.2216853847
 C         -2.6820971664        1.6252371783        1.2261763180
 C         -2.2223625997        1.5371357752       -0.0814683872
 C         -0.9092429213        1.8727961441       -0.3833364660
 H         -0.5552782967        1.7826090211       -1.3984381436
 N         -3.0876623154        1.1175467879       -1.1042383387
 S         -4.1717359177       -0.1178672541       -0.8126982922
 O         -4.4829655997       -0.6600605651       -2.1159948068
 O         -5.2908634959        0.3918022422       -0.0590741173
 C         -3.2966418245       -1.3285255425        0.1633340569
 C         -2.2164876093       -1.9718478775       -0.4077941267
 C         -1.5301698100       -2.9175442841        0.3362768943
 C         -1.9265148124       -3.1951577543        1.6356848914
 C         -3.0129140488       -2.5411963681        2.1949097826
 C         -3.7079948754       -1.6001173063        1.4523500531
 H         -4.5641000914       -1.0763462782        1.8453519359
 H         -3.3208274552       -2.7615734747        3.2043146233
 H         -1.3853454528       -3.9284623570        2.2124822258
 H         -0.6881991612       -3.4332486636       -0.0970391476
 H         -1.9331664276       -1.7345832947       -1.4213351957
 H         -2.6356929431        1.0116627748       -2.0004346407
 H         -3.7109941287        1.3881620261        1.4417059218
 H         -2.1558299967        2.0884501667        3.2415394132
 H          0.1859069026        2.6441339791        2.7043930851
 H          1.8304690561        3.1213953204        1.1746586875
 C          1.5452389127        3.5352450828       -0.8980929003
 C          1.1741083093        4.9787336430       -0.7479258457
 C          2.6131733900        4.5853544199       -0.8907805749
 H          3.1214970717        4.8097465005       -1.8166385491
 H          3.2486633777        4.6469365665       -0.0191321331
 H          0.6917738171        5.4763575372       -1.5752810110
 H          0.8327961701        5.3077616632        0.2220509535
 H          1.3342086540        3.0563731289       -1.8448732294
