  62
        -98.93413031
 C          1.8597636881        1.2741072957        0.5079196009
 C          1.9785502637       -0.0814821680        0.9043291363
 C          3.2083337253       -0.8025662587        0.5244240545
 C          4.1567384516       -0.1380950227       -0.1608566378
 C          5.4821413652       -0.6448730703       -0.6656558506
 C          5.3461114241       -1.5299246170       -1.9136274014
 C          4.2397837974       -2.5781177186       -1.8352511354
 H          4.1887436068       -3.0796119772       -2.8054125514
 H          3.2825095174       -2.0769102204       -1.6807100555
 C          4.4342504384       -3.6494790478       -0.7645076214
 H          5.3900053033       -4.1515378539       -0.9299905955
 H          3.6428882156       -4.3906908789       -0.9028525765
 C          4.3803362283       -3.1659976722        0.6872783817
 H          5.3176068012       -2.7040485218        0.9858352929
 H          4.2563411870       -4.0504508635        1.3188443785
 C          3.2140591407       -2.2349647860        1.0018428928
 H          3.0914735522       -2.1813964593        2.0900096634
 H          2.2874083186       -2.6860463931        0.6284541075
 H          6.3043696473       -2.0202822136       -2.0941693220
 H          5.1329592636       -0.8820688002       -2.7676418269
 H          6.0075739490       -1.1722261723        0.1250568107
 H          6.0730009108        0.2358729934       -0.9273947078
 O          3.9972420859        1.1624883147       -0.5322782708
 C          2.8595579214        1.8951235492       -0.2403150604
 O          2.8839311781        3.0522828463       -0.7043702361
 O          1.0847938715       -0.6785248594        1.5616276212
 C          0.5877222615        1.9904243887        0.9252642387
 C         -0.4797193229        1.9006717878       -0.1405737604
 C         -0.1983939717        2.1927371207       -1.4705662734
 C         -1.1796137157        2.0801556818       -2.4392604978
 C         -2.4622093240        1.6855300626       -2.1011424685
 C         -2.7582884125        1.4075172614       -0.7741852737
 C         -1.7699960738        1.5161090583        0.1969246653
 H         -2.0037621429        1.2783910859        1.2258954196
 N         -4.0720908382        1.0073552443       -0.4425782578
 S         -4.5315543468       -0.5402754280       -0.8974481212
 O         -4.0813976639       -0.7768240620       -2.2442384325
 O         -5.9550285186       -0.6216206722       -0.6658095936
 C         -3.6821460784       -1.6054937849        0.2545621565
 C         -2.3099409385       -1.7285564874        0.1548531664
 C         -1.6315529005       -2.4615859104        1.1157189056
 C         -2.3366384398       -3.0701003509        2.1431727908
 C         -3.7162278913       -2.9512867524        2.2203636916
 C         -4.3970278813       -2.2003911371        1.2757046517
 H         -5.4661210384       -2.0645055191        1.3052551230
 H         -4.2596183075       -3.4294266702        3.0195775225
 H         -1.8020503266       -3.6356489869        2.8900508068
 H         -0.5552977050       -2.5165278924        1.0781195902
 H         -1.7886691372       -1.2480918404       -0.6581670170
 H         -4.3005070027        1.1441137865        0.5326568507
 H         -3.2322549720        1.5745168713       -2.8466519427
 H         -0.9430698542        2.3033351418       -3.4687888033
 H          0.7983958078        2.5079725509       -1.7395695507
 H          0.2227316790        1.4414595425        1.8043393358
 C          0.8006558540        3.4390865517        1.3199968970
 C         -0.1647256215        4.0905756487        2.2621740853
 C          1.2256400585        3.7662808035        2.7185247717
 H          1.9264607753        4.5738922636        2.8663658048
 H          1.3575810552        2.9436460598        3.4062975137
 H         -0.4245289295        5.1247652636        2.0968784498
 H         -0.9751936448        3.4908256847        2.6475585074
 H          1.2113372103        4.0432988970        0.5218282342
