  62
        -98.94413700
 C         -2.5202151500       -1.1509487892       -0.0788737201
 C         -3.2363261700       -0.3955343889        0.8793943996
 C         -4.0277627996        0.7214863913        0.3519500893
 C         -4.0440148792        0.9608504411       -0.9723262007
 C         -4.8189569587        2.0487489813       -1.6652361211
 C         -4.1038739383        3.4067064211       -1.6845734011
 C         -4.0601471485        4.1372872912       -0.3418530411
 H         -5.0679042985        4.2002076116        0.0696926286
 H         -3.7254167681        5.1569928711       -0.5419954312
 C         -3.1190975589        3.5046515711        0.6931191692
 H         -2.5148544288        4.2846101210        1.1625273692
 H         -2.4272986890        2.8256245208        0.1883216494
 C         -3.8286327594        2.7453836014        1.8146954691
 H         -4.4269043393        3.4416548317        2.4064564489
 H         -3.0682667796        2.3145936313        2.4719742293
 C         -4.7375878396        1.6073248916        1.3311047690
 H         -5.6461297694        2.0144604118        0.8882391487
 H         -5.0113420600        0.9969034918        2.1951889890
 H         -4.6286991080        4.0416709311       -2.4018556713
 H         -3.0859309583        3.2598640307       -2.0530575808
 H         -5.7975828788        2.1576511616       -1.1972812513
 H         -4.9603953186        1.7198360212       -2.6968673511
 O         -3.3457009292        0.2070334608       -1.8619755305
 C         -2.5476912696       -0.8474568893       -1.4404391602
 O         -1.9322804396       -1.4225331996       -2.3567957699
 O         -3.2111072004       -0.6397675787        2.1168084197
 C         -1.6601769405       -2.3096048494        0.3901396502
 C         -0.2104502603       -2.0557205898        0.0541866605
 C          0.6232651795       -3.0138572501       -0.5064968591
 C          1.9474954097       -2.7169178005       -0.7805283889
 C          2.4693192800       -1.4680969507       -0.5001183689
 C          1.6494078301       -0.5063857504        0.0764230008
 C          0.3251488200       -0.8081908699        0.3524966305
 H         -0.3120223299       -0.0572837297        0.8052086703
 N          2.1703295304        0.7691099595        0.3616351208
 S          3.5753824502        0.8555337892        1.2808469911
 O          3.6966728697       -0.2803704207        2.1650867312
 O          3.5358164904        2.1583375993        1.9085403809
 C          4.8830182705        0.8328256587        0.0732453414
 C          4.9055994110        1.8316579186       -0.8803110287
 C          5.9192361312        1.8316573982       -1.8251030585
 C          6.8888143109        0.8401032679       -1.7989099881
 C          6.8543636604       -0.1534839820       -0.8324948980
 C          5.8426068702       -0.1596480715        0.1151892117
 H          5.7728684198       -0.9136197814        0.8830348618
 H          7.6094359002       -0.9228236222       -0.8135359977
 H          7.6761492811        0.8424209376       -2.5360425679
 H          5.9495951216        2.6029715981       -2.5777726886
 H          4.1363130512        2.5856434788       -0.8625172090
 H          1.4812192505        1.4147436798        0.7194267005
 H          3.4971626201       -1.2312604510       -0.7206858287
 H          2.5813768496       -3.4694252708       -1.2240997786
 H          0.2354749193       -3.9929295901       -0.7342520891
 H         -1.7554155307       -2.3184918992        1.4869314302
 C         -2.1910214607       -3.6190993093       -0.1538646597
 C         -1.9975039913       -4.8914889392        0.6139642705
 C         -3.3563917711       -4.2658190889        0.5308634601
 H         -4.1107608511       -4.7436244887       -0.0758976900
 H         -3.7499203611       -3.7749373486        1.4092215399
 H         -1.8209668314       -5.8037892594        0.0644434506
 H         -1.4699570015       -4.8329832393        1.5541015806
 H         -2.1606075505       -3.6615880994       -1.2367066397
