  62
        -98.94310936
 C         -2.5571034157       -0.1912759707        0.5347294573
 C         -2.2057065859        0.3512042962       -0.7268597708
 C         -2.0009267375        1.8077631061       -0.7657271684
 C         -2.1114494089        2.5234135082        0.3667478401
 C         -1.9025838686        4.0060030720        0.4758595941
 C         -0.4498624652        4.3490029186        0.8300916350
 C          0.5871773547        3.6581657644       -0.0558168500
 H          1.5697892137        4.0260339544        0.2498268021
 H          0.5789984841        2.5829084962        0.1415013518
 C          0.3979874538        3.8925205041       -1.5610661759
 H          1.3725470406        4.1077936329       -2.0039123244
 H         -0.2351590111        4.7657807922       -1.7262495252
 C         -0.1775576489        2.6908286447       -2.3133127284
 H         -0.0270455067        2.8525992748       -3.3843630073
 H          0.3743386727        1.7911336702       -2.0304633515
 C         -1.6724801646        2.4231223625       -2.0966405548
 H         -2.2397167630        3.3451948038       -2.2453560225
 H         -1.9920379389        1.6959844397       -2.8490241041
 H         -0.2653557751        4.0514066457        1.8652294378
 H         -0.3266247997        5.4317493489        0.7592847915
 H         -2.1772201268        4.4739658047       -0.4676921215
 H         -2.5566833607        4.3849276929        1.2635472976
 O         -2.4072845340        1.9629839438        1.5689851405
 C         -2.6127414414        0.5984105631        1.6843914951
 O         -2.8419874067        0.2142578657        2.8506551764
 H         -0.1889024907       -1.2428565289        1.1341970846
 C         -0.3294808600       -2.0328172699        0.4088135419
 C         -1.6184938354       -2.4221423735        0.0659239363
 C         -1.7795116260       -3.4416753743       -0.8619566858
 C         -0.6720088604       -4.0329870495       -1.4459112017
 C          0.6072344638       -3.6120292584       -1.1341620433
 C          0.7779888978       -2.5975517486       -0.1982990946
 N          2.0617875394       -2.1405348091        0.1568498871
 S          2.2211861661       -0.4815860236        0.4467622932
 O          1.8475739345       -0.2114675281        1.8144954781
 O          1.5314293907        0.2746149524       -0.5708735833
 C          3.9855663713       -0.2907780679        0.2719690790
 C          4.5003360320        0.3547191813       -0.8355903049
 C          5.8759436767        0.4729851170       -0.9627972470
 C          6.7075399121       -0.0564554679        0.0121749454
 C          6.1755038065       -0.7014011176        1.1192974031
 C          4.8016608361       -0.8208055040        1.2539399750
 H          4.3417273522       -1.3040991413        2.1000866456
 H          6.8250013820       -1.1100474146        1.8764554033
 H          7.7772152060        0.0362627635       -0.0896772482
 H          6.2916714619        0.9763080647       -1.8206911175
 H          3.8134676150        0.7524314528       -1.5654308433
 H          2.7761009721       -2.4658081978       -0.4813104678
 H          1.4668181689       -4.0567332677       -1.6124757117
 H         -0.8093438245       -4.8200403800       -2.1719999860
 H         -2.7697170728       -3.7537280060       -1.1507386177
 C         -2.7547969372       -1.6859836791        0.7325592467
 H         -2.6553968755       -1.8393675380        1.8209589719
 C         -4.1324546238       -2.2033996142        0.3481408714
 C         -5.3270481474       -1.2978918112        0.3623079651
 C         -4.8033520420       -1.8272414814       -0.9372506849
 H         -5.3819057855       -2.5812637655       -1.4508144834
 H         -4.2762035577       -1.1549358220       -1.5947393887
 H         -6.2600774163       -1.6869108496        0.7416930161
 H         -5.1601668248       -0.2561326215        0.5965526643
 H         -4.2968881839       -3.2153275813        0.7059516652
 O         -2.0865835164       -0.3311902480       -1.7770965936
