  62
        -98.94544231
 C         -2.5946312849        0.0379945107        0.5193780004
 C         -2.5193459323        0.7680176530       -0.6914025890
 C         -2.0969660480        2.1672652904       -0.5666629880
 C         -1.7891078703        2.6676698910        0.6433110304
 C         -1.2964995994        4.0608560360        0.9249864191
 C          0.2120084426        4.2306567287        0.6937790773
 C          0.6440474690        4.2996926180       -0.7720406714
 H          0.0217286208        5.0216821567       -1.3024785996
 H          1.6677350950        4.6792188711       -0.7831132586
 C          0.6148765217        2.9503666723       -1.5035282376
 H          1.5265387874        2.8418964974       -2.0967108899
 H          0.6154722125        2.1393975204       -0.7711032015
 C         -0.5620825869        2.7673296617       -2.4621539249
 H         -0.4651041359        3.4657045207       -3.2972455909
 H         -0.5202276323        1.7511201453       -2.8626650404
 C         -1.9427935083        2.9661323816       -1.8258783212
 H         -2.6966594005        2.6121004229       -2.5338596769
 H         -2.1175626458        4.0233113926       -1.6269320214
 H          0.5147093247        5.1582519535        1.1858073706
 H          0.7340567411        3.4040876897        1.1832358572
 H         -1.8458690381        4.7791914087        0.3154544280
 H         -1.5103606251        4.2602662476        1.9772744722
 O         -1.9032976100        1.9417199920        1.7882567815
 C         -2.2729820808        0.6077619798        1.7500748011
 O         -2.2904204790        0.0456276849        2.8669154295
 O         -2.7834710679        0.2775894161       -1.8204506161
 C         -2.8753699396       -1.4533611314        0.4799409913
 C         -1.7830568577       -2.1260371190       -0.3206856849
 C         -2.0064764921       -3.1583556980       -1.2214935551
 C         -0.9483714032       -3.7069858523       -1.9274103822
 C          0.3415976021       -3.2393037315       -1.7590668331
 C          0.5753233963       -2.2039836412       -0.8586661143
 C         -0.4809892186       -1.6786953609       -0.1360958466
 H         -0.2888998181       -0.8905941246        0.5768787387
 N          1.8602842146       -1.6564417771       -0.7079903348
 S          2.2717091700       -0.8043565019        0.6848395629
 O          2.0801364366       -1.6371107215        1.8534006355
 O          1.6012423897        0.4706124698        0.6849975935
 C          4.0114591220       -0.5631297872        0.3829107543
 C          4.4031997919        0.5041184642       -0.4026829128
 C          5.7517681445        0.6811222552       -0.6681389812
 C          6.6806616781       -0.2075830853       -0.1472314082
 C          6.2728235676       -1.2724841061        0.6420030159
 C          4.9253514863       -1.4555301070        0.9106001652
 H          4.5622933528       -2.2616403218        1.5277729006
 H          6.9975305299       -1.9590504304        1.0489653998
 H          7.7296748701       -0.0670515760       -0.3547362082
 H          6.0724833538        1.5100816488       -1.2781164352
 H          3.6442840725        1.1721615161       -0.7762458088
 H          2.6014202729       -2.2753117471       -1.0053790893
 H          1.1593929348       -3.6590896148       -2.3242359309
 H         -1.1337991978       -4.5091370678       -2.6256627018
 H         -3.0069537366       -3.5284087182       -1.3757497054
 H         -2.8013273105       -1.8064657645        1.5201270445
 C         -4.2687007090       -1.7386228808       -0.0385427873
 C         -5.0150390166       -2.9511206169        0.4286431506
 C         -5.4309304937       -1.5893044642        0.8949791460
 H         -6.3485783739       -1.1682195899        0.5129502257
 H         -5.2117972470       -1.3065221349        1.9147610787
 H         -5.6529276586       -3.4664144093       -0.2735120044
 H         -4.5226811785       -3.5989882410        1.1383747457
 H         -4.4033982194       -1.4136091970       -1.0634080549
