  62
        -98.94834457
 C         -0.8319934162       -1.2868361823        0.0468747360
 C         -1.6922923962       -0.9197815665        1.1074519243
 C         -2.4798744986        0.2997459811        0.8965589934
 C         -2.3264605799        1.0049563551       -0.2389629429
 C         -3.0755553954        2.2557505256       -0.6115080306
 C         -4.4652364658        1.9973306676       -1.2114960515
 C         -5.5333457885        1.5314359001       -0.2214714418
 H         -5.5592388547        2.2105840336        0.6312661112
 H         -6.4966537317        1.6099538742       -0.7294073066
 C         -5.3540859134        0.0892749077        0.2725269950
 H         -6.3136584051       -0.4313122085        0.2352247489
 H         -4.6738517385       -0.4438288440       -0.3955826859
 C         -4.8306413623       -0.0283542564        1.7038160479
 H         -4.7015947785       -1.0883147735        1.9372128136
 H         -5.5658456448        0.3820410656        2.3997730831
 C         -3.4877631738        0.6747056258        1.9408145317
 H         -3.6268692948        1.7554879023        1.9647994698
 H         -3.0964390177        0.3527918455        2.9095527754
 H         -4.3671597103        1.2614800609       -2.0126267014
 H         -4.8034128853        2.9343865407       -1.6596788420
 H         -2.4706026986        2.7627825307       -1.3646537429
 H         -3.1672401655        2.9036485098        0.2607356448
 O         -1.4390525639        0.6533621837       -1.2067022740
 C         -0.6800339766       -0.5024780721       -1.0965125863
 O          0.0759812997       -0.7152079098       -2.0621032381
 O         -1.8034950220       -1.5843317637        2.1741066108
 C         -0.0277629938       -2.5673313476        0.1584195962
 C          1.4465110749       -2.2973007478       -0.0060239625
 C          2.2978570460       -3.1477985564       -0.7008709114
 C          3.6452179603       -2.8525684374       -0.8131683651
 C          4.1692306076       -1.7055303405       -0.2468816238
 C          3.3260770988       -0.8522239283        0.4575976753
 C          1.9812586897       -1.1589806636        0.5834989543
 H          1.3392885296       -0.4940848184        1.1431690182
 N          3.8277950806        0.3177075076        1.0460360753
 S          2.8861706554        1.6616680638        1.3012851240
 O          3.8464707777        2.7128368181        1.5712247667
 O          1.9277012719        1.4185128329        2.3523454700
 C          2.0309000878        2.0656145055       -0.2134007568
 C          2.4523420485        1.5985279841       -1.4407651349
 C          1.7889047759        2.0228237294       -2.5814381710
 C          0.7407464698        2.9218969184       -2.4812984759
 C          0.3381735964        3.3938220191       -1.2420197492
 C          0.9811102666        2.9551387997       -0.0972645469
 H          0.6867783326        3.2802523083        0.8884795414
 H         -0.4720516137        4.1009785232       -1.1609652700
 H          0.2307581226        3.2512478190       -3.3729153933
 H          2.0919607528        1.6431501859       -3.5435507666
 H          3.2684757884        0.8982983102       -1.5099551444
 H          4.7788941352        0.5570251649        0.8091581214
 H          5.2175308352       -1.4683356570       -0.3446511467
 H          4.2950595843       -3.5202284631       -1.3579079632
 H          1.9056462625       -4.0410094004       -1.1583757830
 H         -0.1961571867       -2.9313573146        1.1838054305
 C         -0.5606293595       -3.5980044412       -0.8174786445
 C         -0.5264417401       -5.0579851857       -0.4802120622
 C         -1.8301978089       -4.3196981261       -0.4818900103
 H         -2.5374439648       -4.5174728959       -1.2733936420
 H         -2.2915852733       -4.0906170460        0.4678509016
 H         -0.3410081027       -5.7666393381       -1.2733663905
 H         -0.1085251826       -5.3420698369        0.4738090624
 H         -0.4098845529       -3.3051788162       -1.8506974101
