  62
        -98.94497944
 C          1.8834347489        0.7176777000       -0.1935452398
 C          2.4745907190        0.1815117502        0.9748099503
 C          3.5278036191       -0.8166727997        0.7586961403
 C          3.8360128390       -1.2003152498       -0.4937920496
 C          4.8613927091       -2.2336565498       -0.8747918596
 C          6.2952182390       -1.6920490897       -0.9548733397
 C          6.9476975091       -1.3774698094        0.3918900902
 H          6.8621538292       -2.2450294393        1.0470412303
 H          8.0107867391       -1.2162657593        0.2025390501
 C          6.3781992790       -0.1384130894        1.0968005200
 H          5.8196558289        0.4650561105        0.3776010000
 H          7.1993835790        0.4809272808        1.4644211699
 C          5.4746962291       -0.4472502793        2.2906040301
 H          6.0571959893       -0.9362316591        3.0745697002
 H          5.0998669291        0.4986229107        2.6899020600
 C          4.2667715192       -1.3325470095        1.9565432603
 H          4.5877764893       -2.3612734594        1.7934549305
 H          3.5798680893       -1.3106437794        2.8063314004
 H          6.2953264089       -0.7952388997       -1.5786538099
 H          6.9006378291       -2.4481013597       -1.4601505097
 H          4.8242457392       -3.0648941697       -0.1698321095
 H          4.5769318391       -2.6030733600       -1.8625306195
 O          3.2124383089       -0.6930550701       -1.5903475597
 C          2.2377522488        0.2888940499       -1.4730706797
 O          1.7709816187        0.6803235697       -2.5587076098
 H         -0.3173623110       -0.6030783601        0.3293009406
 C         -0.9202549311        0.0029550097       -0.3358953995
 C         -0.4891338512        1.2844569197       -0.6584492197
 C         -1.2820349714        2.0560940095       -1.4971302697
 C         -2.4535950614        1.5405607193       -2.0256835696
 C         -2.8646449112        0.2559659493       -1.7241705794
 C         -2.0902054711       -0.5167827305       -0.8670412393
 N         -2.5059685509       -1.8173365205       -0.5383282991
 S         -4.1221595509       -2.0666296906       -0.1860160390
 O         -4.1428521207       -3.2074618305        0.7027161212
 O         -4.8700601209       -2.2114508308       -1.4101786289
 C         -4.6534594810       -0.5954864405        0.6729049409
 C         -3.9958761209       -0.2461322503        1.8358389008
 C         -4.3791505810        0.9064114498        2.5019290206
 C         -5.4092456211        1.6855237696        1.9971507506
 C         -6.0633348011        1.3181979894        0.8316926907
 C         -5.6822436311        0.1676994693        0.1597219908
 H         -6.1604642311       -0.1531326209       -0.7513563491
 H         -6.8651053812        1.9247322992        0.4425270707
 H         -5.7028373011        2.5836611996        2.5172151405
 H         -3.8704534109        1.1930310199        3.4084623406
 H         -3.2014916408       -0.8745431802        2.2062639508
 H         -1.9049373808       -2.2900760003        0.1198058109
 H         -3.7618051712       -0.1665315008       -2.1465975693
 H         -3.0525148915        2.1470346192       -2.6875544796
 H         -0.9777003115        3.0585048995       -1.7483341999
 C          0.8030704988        1.7740702299       -0.0520080998
 H          0.6490873488        1.8880069801        1.0316523402
 C          1.2775298686        3.0965248699       -0.6166162001
 C          0.7628192985        4.3868572499       -0.0541505302
 C          2.1723186986        3.9592765601        0.2203756798
 H          2.9787622785        4.4890166901       -0.2642094404
 H          2.4178476687        3.6046852103        1.2109115098
 H          0.6027246884        5.2154453898       -0.7273287603
 H          0.0507713186        4.3305509300        0.7550211599
 H          1.4850809385        3.0439840298       -1.6795166801
 O          2.1297013090        0.5122296804        2.1417491202
