  62
        -98.94121678
 C         -1.6738015116       -0.3384301937        0.9646669490
 C         -2.8968486668       -0.9823406219        0.6554793692
 C         -4.0534693119       -0.0963735551        0.4604006788
 C         -3.9135388206        1.2357485706        0.5761842680
 C         -5.0036384701        2.2612908082        0.4219531056
 C         -5.2821860660        2.6643912555       -1.0325758787
 C         -5.9998090272        1.6090084957       -1.8749714243
 H         -6.8968615405        1.2761973045       -1.3518311805
 H         -6.3230758078        2.0995326853       -2.7953444954
 C         -5.1344989269        0.3949906396       -2.2409980910
 H         -5.2607269246        0.1641709869       -3.3012208544
 H         -4.0803020843        0.6394437501       -2.0908297366
 C         -5.4634159513       -0.8763510351       -1.4585704498
 H         -6.4751951784       -1.2067781648       -1.7042718342
 H         -4.7682078209       -1.6598117479       -1.7704743420
 C         -5.3552644601       -0.7259115085        0.0643686845
 H         -6.1921186857       -0.1409185469        0.4451156997
 H         -5.3925063759       -1.7227320132        0.5104629614
 H         -4.3353501199        2.9284223971       -1.5091932906
 H         -5.9039618719        3.5623446616       -1.0079978755
 H         -5.9214443786        1.8924245386        0.8807358810
 H         -4.6742674673        3.1482029095        0.9674646565
 O         -2.7225407330        1.8179871886        0.8764195103
 C         -1.5832924830        1.0546696951        1.0603628677
 O         -0.5600023382        1.7222825330        1.3114484725
 H          1.9940941779       -0.1944117095        0.2663621838
 C          1.5362391400       -0.8918742043       -0.4183021658
 C          0.2988785016       -1.4388512276       -0.1122337077
 C         -0.2896164355       -2.3173560411       -1.0157800098
 C          0.3561309113       -2.6394381925       -2.1951103248
 C          1.6029075845       -2.1130890800       -2.4849848631
 C          2.1981557534       -1.2326090241       -1.5894309396
 N          3.4526515480       -0.6709223563       -1.8606504993
 S          4.5432012030       -0.3815859280       -0.6260291736
 O          5.8293767542       -0.3346861564       -1.2882595058
 O          4.4122080456       -1.3485028188        0.4384696126
 C          4.1362852011        1.2496235954       -0.0435335003
 C          3.9285904366        1.4654420759        1.3037937942
 C          3.6326766052        2.7467375108        1.7405530096
 C          3.5520549737        3.7848605104        0.8260298517
 C          3.7677512129        3.5527199767       -0.5239586062
 C          4.0642561941        2.2740034746       -0.9663495685
 H          4.2409250475        2.0555282231       -2.0063646852
 H          3.7028431026        4.3640273384       -1.2311335567
 H          3.3172264595        4.7801621349        1.1689393806
 H          3.4602771159        2.9283344624        2.7892973273
 H          3.9952131536        0.6286716359        1.9818125317
 H          3.9035719364       -1.0111357943       -2.6971014559
 H          2.1120575701       -2.3786176940       -3.3991777046
 H         -0.1103562846       -3.3190993158       -2.8924090664
 H         -1.2575411262       -2.7358224733       -0.7870326606
 C         -0.3680984608       -1.0819036571        1.1947671205
 H          0.2892895385       -0.3706747931        1.7133685772
 C         -0.5125607280       -2.3161613269        2.0651809243
 C          0.7245686969       -2.9242238724        2.6523756769
 C         -0.2544776756       -2.2125430924        3.5364561102
 H         -0.8627381277       -2.7988519802        4.2088649016
 H          0.0229966499       -1.2452403157        3.9298849010
 H          0.7877825934       -3.9997854001        2.7174057461
 H          1.6693635800       -2.4450431354        2.4389213265
 H         -1.2981647273       -2.9850725539        1.7406307853
 O         -3.0470180312       -2.2280785841        0.5452855916
