  62
        -98.93294864
 C         -2.1901717074       -1.3930239596       -0.0091623046
 C         -2.9734340621       -0.7547952847        0.9847929733
 C         -3.9042087998        0.2989745149        0.5421366863
 C         -3.9704546367        0.5969031775       -0.7673898067
 C         -4.8289406555        1.6223185623       -1.4636089146
 C         -6.2990928390        1.7007635013       -1.0237977385
 C         -6.6325392093        2.9716292215       -0.2406679526
 H         -6.1019626856        3.8100714400       -0.6968218564
 H         -7.7020138568        3.1712029639       -0.3376562458
 C         -6.3064212969        2.9191624542        1.2508921733
 H         -6.4575740980        3.9219085430        1.6573949082
 H         -7.0140055304        2.2552666275        1.7522044166
 C         -4.8881779682        2.4599906553        1.5962421301
 H         -4.1652173900        2.8959121746        0.9072568187
 H         -4.6470146875        2.8412198490        2.5908619055
 C         -4.7262673109        0.9329222946        1.6308885604
 H         -4.2271217747        0.6377096065        2.5590220481
 H         -5.7096637841        0.4542332533        1.6535444073
 H         -6.9162362983        1.6882016311       -1.9236176366
 H         -6.5589297730        0.8178435221       -0.4418610558
 H         -4.3552441930        2.6012745625       -1.3541633561
 H         -4.7713451757        1.3667631442       -2.5242179106
 O         -3.1873689959       -0.0298922615       -1.6895727507
 C         -2.2799733885       -1.0224570915       -1.3499898268
 O         -1.6445811414       -1.4673782413       -2.3250023398
 O         -2.9024498355       -1.0617240456        2.2054484432
 C         -1.2488301905       -2.4882406655        0.4633957753
 C          0.1329102291       -1.9386818623        0.7093492668
 C          0.7633491204       -2.1016773486        1.9368699774
 C          2.0236709246       -1.5727314935        2.1565185465
 C          2.6806158653       -0.8756205761        1.1584710694
 C          2.0561459525       -0.7013408900       -0.0698259170
 C          0.7930815792       -1.2313772055       -0.2866864135
 H          0.3103860716       -1.0915232828       -1.2432033918
 N          2.7167838974        0.0026106506       -1.0951679779
 S          3.2404146109        1.5589846230       -0.7350617580
 O          2.4234265338        2.1664114108        0.2910536950
 O          3.2979889039        2.2490654688       -2.0052501511
 C          4.8982856510        1.3130992169       -0.1335715461
 C          5.7982594985        0.6655048685       -0.9573899000
 C          7.0936709473        0.4668653196       -0.5073642203
 C          7.4657095605        0.9188228229        0.7501926424
 C          6.5512797011        1.5702367974        1.5636829813
 C          5.2533043684        1.7714963498        1.1199062057
 H          4.5060481390        2.2671100739        1.7190775753
 H          6.8422609433        1.9212660103        2.5406945489
 H          8.4745157586        0.7626053362        1.0982437050
 H          7.8074937133       -0.0392355537       -1.1371112605
 H          5.4686778464        0.3339110389       -1.9278938301
 H          2.2024839039        0.0020350921       -1.9653010658
 H          3.6617127240       -0.4611826623        1.3233760843
 H          2.5002611466       -1.7047445116        3.1157503891
 H          0.2510263127       -2.6315316626        2.7264660249
 H         -1.6568219855       -2.7995251361        1.4378526994
 C         -1.2571517570       -3.7124029692       -0.4427926953
 C         -0.0904085082       -4.1453265920       -1.2742834448
 C         -0.4710293086       -4.9310026850       -0.0578336635
 H         -0.9241868691       -5.9022315588       -0.1852288560
 H          0.1713578497       -4.8503378712        0.8061088236
 H         -0.3008568948       -4.5567300767       -2.2497660693
 H          0.8126273496       -3.5569508160       -1.2386720702
 H         -2.2382108654       -3.8837715651       -0.8748008134
