  62
        -98.94020487
 C         -0.6074097548       -1.3637482074        0.0269080364
 C         -1.3947257221       -0.7532974146        1.0307073008
 C         -2.4440594513        0.1608024867        0.5585098050
 C         -2.5740427683        0.3988019117       -0.7588498703
 C         -3.6081616645        1.2717298310       -1.4203298458
 C         -5.0714235626        0.8101976669       -1.2731109504
 C         -5.8237807452        1.4597588823       -0.1047663789
 H         -5.3414282556        2.4060297851        0.1429324640
 H         -6.8375169951        1.7016750693       -0.4303852222
 C         -5.9550465655        0.6081839105        1.1617308024
 H         -6.2730766701        1.2647818896        1.9745776512
 H         -6.7427646412       -0.1339498464        1.0130501759
 C         -4.6965324612       -0.1433069498        1.5972723439
 H         -4.5453760225       -1.0131834327        0.9535315054
 H         -4.8627368006       -0.5322638309        2.6039562030
 C         -3.4048679744        0.6978021171        1.5790217693
 H         -2.9035698833        0.6286375610        2.5467760085
 H         -3.6313290660        1.7447015550        1.3834950980
 H         -5.1047708256       -0.2757167785       -1.1907452336
 H         -5.5832642191        1.0796038488       -2.1982466384
 H         -3.5157292408        2.2909771440       -1.0413031862
 H         -3.3444273166        1.2804337137       -2.4792860873
 O         -1.7291068327       -0.1337233846       -1.6824858277
 C         -0.7409837237       -1.0363296110       -1.3222415068
 O         -0.0660641793       -1.4648411701       -2.2760061127
 O         -1.2412579115       -0.9742209882        2.2627971897
 C          0.4022990380       -2.4255468772        0.4253576496
 C          1.7840202749       -2.0447978137       -0.0394073545
 C          2.5590669556       -2.8344527035       -0.8782168533
 C          3.8138895803       -2.4081612057       -1.2766820186
 C          4.3199992471       -1.1956020572       -0.8484703067
 C          3.5575998823       -0.4045032790        0.0052178998
 C          2.3025048135       -0.8338959401        0.4047761009
 H          1.7184660226       -0.2229159383        1.0785499539
 N          4.0585504941        0.8170533608        0.4713022643
 S          3.0757085816        2.0177601782        1.0581389913
 O          3.9036719854        3.2051584656        1.0064880401
 O          2.5778347281        1.6667381617        2.3649737269
 C          1.7166427536        2.2174042433       -0.0806159877
 C          1.9120642344        2.0564789569       -1.4373380510
 C          0.8580938207        2.3100668283       -2.3001456286
 C         -0.3606393623        2.7367892663       -1.7981722049
 C         -0.5412224918        2.8924724855       -0.4330869045
 C          0.5034162231        2.6245363221        0.4352382263
 H          0.3984852838        2.7174332094        1.5047577191
 H         -1.4876837659        3.2230543080       -0.0369721868
 H         -1.1740885678        2.9444055397       -2.4748563968
 H          0.9907384797        2.1730751987       -3.3611883782
 H          2.8693654911        1.7317750848       -1.8111133909
 H          4.8893796435        1.1639172143        0.0173550588
 H          5.2964602266       -0.8613814978       -1.1634392754
 H          4.4037099430       -3.0270915957       -1.9354368089
 H          2.1790388001       -3.7790967950       -1.2291377107
 H          0.4031009342       -2.4294280107        1.5254681112
 C         -0.0568555079       -3.7828836205       -0.0671085981
 C          0.3926564548       -5.0289700199        0.6336916710
 C         -1.0267329113       -4.5664589353        0.7633852422
 H         -1.8011418182       -5.1267994499        0.2611215249
 H         -1.3421199170       -4.1310658254        1.7004924189
 H          0.5912724967       -5.9108831666        0.0437923861
 H          1.0431752913       -4.9134040038        1.4873594169
 H         -0.1835176637       -3.8162275558       -1.1435643105
