  62
        -98.94044403
 C          2.4737385608        1.1523303005        0.0886328291
 C          2.5487131908       -0.0134288696       -0.7109090707
 C          3.9038059808       -0.5162038595       -0.9720154210
 C          4.9702989108        0.1541394207       -0.4987234413
 C          6.4138950308       -0.2151612492       -0.7086629616
 C          6.9438531212       -1.2528538989        0.2903015585
 C          6.4270564913       -2.6769489090        0.0828418288
 H          6.5876754911       -2.9728743192       -0.9542387912
 H          7.0364011315       -3.3330812189        0.7074553088
 C          4.9504566214       -2.8747484692        0.4534077192
 H          4.8428035516       -3.7830350091        1.0504828393
 H          4.6156606314       -2.0417974391        1.0759314991
 C          4.0077228411       -3.0058965994       -0.7430742306
 H          4.2484600511       -3.9130887995       -1.3017778805
 H          2.9860624412       -3.1027503795       -0.3661591504
 C          4.0423249508       -1.8139347096       -1.7089433908
 H          3.1930917507       -1.9001578098       -2.3913854206
 H          4.9631843107       -1.8271010496       -2.2916699510
 H          8.0322860812       -1.2668924188        0.1986752783
 H          6.6995339114       -0.9199905288        1.3016571085
 H          6.5539103707       -0.5820214293       -1.7257168615
 H          6.9899025208        0.7047368909       -0.5876100418
 O          4.8542246409        1.2937320008        0.2344147886
 C          3.6100525709        1.8042249907        0.5667805488
 O          3.6473821809        2.8269209108        1.2810301986
 O          1.5413472908       -0.6048235998       -1.1812036804
 C          1.1218644409        1.7474356604        0.4324365593
 C          0.2209536811        0.7140118004        1.0644378397
 C          0.7383566614       -0.1539546494        2.0221787097
 C         -0.0636491783       -1.1098099594        2.6144452100
 C         -1.4000261484       -1.2158785596        2.2721471203
 C         -1.9344859287       -0.3370536898        1.3373860003
 C         -1.1247423889        0.6215015802        0.7438015500
 H         -1.5605361892        1.2847583000        0.0164349200
 N         -3.3045921388       -0.3859699600        1.0264998906
 S         -3.8588640492        0.0368383697       -0.5090120294
 O         -3.2051389393       -0.7569698804       -1.5255356494
 O         -3.7772495193        1.4673771397       -0.6606638496
 C         -5.5689670991       -0.4450108705       -0.3510272989
 C         -6.0027542490       -1.6319632606       -0.9097936786
 C         -7.3308121890       -1.9991376307       -0.7570020983
 C         -8.1965905989       -1.1793032607       -0.0491593482
 C         -7.7466797389        0.0098724594        0.5055574215
 C         -6.4210381990        0.3836782795        0.3546953111
 H         -6.0287277090        1.3021399896        0.7588926609
 H         -8.4235370889        0.6458653794        1.0529085515
 H         -9.2293144189       -1.4673975108        0.0684499420
 H         -7.6842857790       -2.9209330109       -1.1902663381
 H         -5.2954049691       -2.2336254406       -1.4578555687
 H         -3.7415240286       -1.2424165400        1.3395617408
 H         -2.0240158182       -1.9690097396        2.7288760805
 H          0.3564951519       -1.7846071992        3.3453590700
 H          1.7848045815       -0.0770539892        2.2862213994
 H          1.3141209909        2.5353094405        1.1766887391
 C          0.5152719805        2.3858460601       -0.8011129207
 C         -0.3601944496        3.5953329201       -0.6782256907
 C          1.0180536603        3.7230595501       -1.2520397910
 H          1.1242995500        3.9039946800       -2.3111336810
 H          1.7824910903        4.1908084003       -0.6484039812
 H         -1.2100007098        3.6836231699       -1.3389065205
 H         -0.5335234194        3.9868522602        0.3129357193
 H          0.2725632104        1.6577286500       -1.5684067605
