  62
        -98.93960288
 C          1.4380187102        0.9934700007       -0.5527140992
 C          2.5758044101        1.0214423403        0.2922588110
 C          3.2834764700       -0.2491969599        0.5200306306
 C          2.8211813199       -1.3700894596       -0.0642287098
 C          3.2791985697       -2.8110205097        0.0282424297
 C          4.6213472996       -3.1639744001        0.6629546997
 C          5.8423771497       -2.7135047699       -0.1389985600
 H          6.7356869297       -2.9100346902        0.4575930200
 H          5.9052589697       -3.3230304396       -1.0439056102
 C          5.8431173599       -1.2491524498       -0.5701118395
 H          4.9943403400       -1.0613186895       -1.2306162695
 H          6.7512426600       -1.0727041997       -1.1527948494
 C          5.8183809400       -0.2326544602        0.5693034808
 H          5.9746780001        0.7569972200        0.1317353212
 H          6.6446177199       -0.4288745005        1.2553814308
 C          4.5125840399       -0.1777756403        1.3804164207
 H          4.4897810597       -0.9494952606        2.1466061505
 H          4.4715388600        0.7891989995        1.8905721910
 H          4.6556926295       -4.2546313401        0.7331118193
 H          4.6664666996       -2.7831005604        1.6790951598
 H          3.2524586797       -3.2012340993       -0.9943867704
 H          2.4854308896       -3.3314775598        0.5765879595
 O          1.7264016700       -1.3506888792       -0.8745065599
 C          1.0025208901       -0.1977669090       -1.1287707296
 O          0.0300536602       -0.3885945986       -1.8857017897
 O          2.9869384102        2.0788129001        0.8438978214
 C          0.6932951504        2.3071072309       -0.7239049988
 C         -0.3689762097        2.4254560206        0.3447867512
 C         -0.3824678697        3.5037049203        1.2205058715
 C         -1.3266673897        3.5755918501        2.2294825415
 C         -2.2519911199        2.5626004502        2.3971912511
 C         -2.2480007699        1.4780543605        1.5245151307
 C         -1.3304038598        1.4339156607        0.4863865308
 H         -1.3321828199        0.5946483709       -0.1881082295
 N         -3.1740008201        0.4395241205        1.6854770903
 S         -2.8079050302       -1.1713973394        1.3823179497
 O         -3.5048788304       -1.8961978397        2.4274917894
 O         -1.3850484902       -1.3940872396        1.2975242198
 C         -3.6396682301       -1.4928340188       -0.1593089204
 C         -2.9491113200       -1.5236172785       -1.3528739404
 C         -3.6547556199       -1.7545706980       -2.5251645505
 C         -5.0258084900       -1.9502931478       -2.4859094907
 C         -5.7046682901       -1.9197429682       -1.2765419008
 C         -5.0075240702       -1.6884543587       -0.1031287506
 H         -5.4914835402       -1.6703887689        0.8592460193
 H         -6.7710665701       -2.0749974281       -1.2461429209
 H         -5.5662611799       -2.1294704975       -3.4021006608
 H         -3.1196371499       -1.7765958077       -3.4612540505
 H         -1.8812978000       -1.3657643086       -1.3680679702
 H         -3.7592104201        0.5260208403        2.5034669402
 H         -2.9703890899        2.6022254900        3.2020518810
 H         -1.3286328297        4.4173576099        2.9053134318
 H          0.3667712504        4.2752085203        1.1219861819
 H          1.4398385005        3.0912727707       -0.5357851384
 C          0.1032784605        2.5285680514       -2.1013355487
 C         -0.1731931993        3.9301201016       -2.5538112283
 C          0.9478390507        3.1502502417       -3.1711743985
 H          0.8374428407        2.7941540120       -4.1842070386
 H          1.9612442007        3.4216252715       -2.9129328983
 H         -1.0576743592        4.1138872319       -3.1437936283
 H          0.0810922508        4.7339014913       -1.8796788580
 H         -0.5902756295        1.7553304016       -2.4031471991
