  62
        -98.93588593
 C          2.3766575829        0.7280277127        0.2329194138
 C          2.4926823531       -0.6858081084        0.2633779517
 C          3.7112368795       -1.2581705805       -0.3227228198
 C          4.6289977452       -0.4330456006       -0.8582227606
 C          5.9397718934       -0.8691672408       -1.4447922048
 C          7.0498116032       -0.8711533671       -0.3845804377
 C          6.6680671225       -1.5950054568        0.9065344811
 H          5.8651979999       -1.0430371775        1.4007040064
 H          7.5361421359       -1.5608909690        1.5683345418
 C          6.2312388096       -3.0535258555        0.7107085068
 H          6.7185906167       -3.6703152491        1.4686483847
 H          6.5647153637       -3.4130595743       -0.2633248036
 C          4.7255374926       -3.2879594164        0.8475476551
 H          4.3678009892       -2.8453315153        1.7807803765
 H          4.5526170232       -4.3657008881        0.9105709599
 C          3.8593674373       -2.7535795927       -0.3003199856
 H          2.8487832776       -3.1518899830       -0.1683481562
 H          4.2486773362       -3.1157744848       -1.2542323305
 H          7.2935761244        0.1644546157       -0.1370428796
 H          7.9380393116       -1.3363104214       -0.8157221613
 H          5.8267618166       -1.8643586138       -1.8703124778
 H          6.2094352034       -0.1715243623       -2.2393247569
 O          4.4814465976        0.9137184059       -0.8820040789
 C          3.3602769883        1.5351651808       -0.3414404803
 O          3.3832165662        2.7741001032       -0.4458831315
 H         -1.4505162896        0.4985106721        1.0034839321
 C         -1.2431115490        1.0075835408        0.0742828576
 C          0.0335803735        1.4847464901       -0.1850772994
 C          0.2803639439        2.1163330487       -1.4003778720
 C         -0.7318560817        2.2599975117       -2.3312903287
 C         -2.0021265848        1.7768352926       -2.0720140755
 C         -2.2616924795        1.1498363941       -0.8585078070
 N         -3.5576494150        0.6979900483       -0.5575410507
 S         -3.7596741531       -0.7069348238        0.3576115695
 O         -3.4971782529       -0.4002250935        1.7408411959
 O         -3.0025523850       -1.7934296279       -0.2220493760
 C         -5.5070720484       -0.9735157111        0.1240039680
 C         -5.9368147143       -1.8972419849       -0.8096792672
 C         -7.2984007141       -2.0723406515       -1.0019462831
 C         -8.2016135345       -1.3225991473       -0.2636566763
 C         -7.7550376976       -0.3999072218        0.6708917352
 C         -6.3953288734       -0.2210058417        0.8691482924
 H         -6.0017820912        0.4766790429        1.5897196882
 H         -8.4604471489        0.1788813420        1.2449614778
 H         -9.2604697527       -1.4604177799       -0.4155160150
 H         -7.6484749644       -2.7913906647       -1.7249363964
 H         -5.1977276139       -2.4630135860       -1.3540830412
 H         -4.1606793170        0.6880071823       -1.3694836363
 H         -2.7889658180        1.8868993585       -2.8027577641
 H         -0.5277371893        2.7498811036       -3.2715564194
 H          1.2704276550        2.4958534246       -1.6030435077
 C          1.1201591109        1.3179809596        0.8472671842
 H          0.7712725474        0.5530692027        1.5607591563
 C          1.3749996741        2.5920103089        1.6418359157
 C          0.9015895568        3.9447808074        1.2121733382
 C          0.2421928239        3.2567722605        2.3670572381
 H          0.4153790163        3.6312036776        3.3646133447
 H         -0.7476340260        2.8526807998        2.2122187844
 H          0.3558817891        4.0234826962        0.2855691998
 H          1.5514044261        4.7840923543        1.4064155667
 H          2.3299656439        2.5604774884        2.1568947749
 O          1.6138981731       -1.4371007632        0.7692364423
