  62
        -98.94630285
 C         -2.5747694086       -0.0150389728       -0.4153609312
 C         -2.1733154621       -0.5833946883        0.8178508043
 C         -1.8615520598       -2.0177127659        0.7865362584
 C         -1.9555584283       -2.6980516971       -0.3705545359
 C         -1.7317948244       -4.1753213091       -0.5543927793
 C         -0.2616738899       -4.5757087233       -0.7325260861
 C          0.5835710682       -4.5129948592        0.5395942747
 H          0.0773639356       -5.0532356613        1.3404643451
 H          1.5187361138       -5.0362064538        0.3307794439
 C          0.9118882416       -3.0881749385        1.0047434593
 H          0.7616498345       -2.3829601554        0.1832818781
 H          1.9694053756       -3.0220238342        1.2733484322
 C          0.1178021323       -2.6037515653        2.2178888305
 H          0.4007586789       -1.5631359610        2.3974855837
 H          0.3971452012       -3.1900140257        3.0971613736
 C         -1.4060958205       -2.6693378026        2.0570830428
 H         -1.7425517824       -3.7062151224        2.0935771914
 H         -1.8595137234       -2.1229749782        2.8882774641
 H         -0.2463217380       -5.6023007748       -1.1063334781
 H          0.1859633055       -3.9336186173       -1.4948949255
 H         -2.1563568773       -4.7152926810        0.2927872144
 H         -2.2777360887       -4.4583976879       -1.4571068576
 O         -2.3188396491       -2.1074264672       -1.5408192126
 C         -2.6159916585       -0.7559220331       -1.5948697227
 O         -2.9125686739       -0.3396935514       -2.7351125750
 O         -2.1034147898        0.0672501306        1.8940605645
 C         -2.9257448100        1.4590196474       -0.4948555852
 C         -1.7597576038        2.3064381813       -0.0445484150
 C         -1.9122517371        3.4856395230        0.6745384989
 C         -0.8032779210        4.2206264308        1.0561357535
 C          0.4738474267        3.7906821641        0.7462340825
 C          0.6363814487        2.6184865279        0.0172121851
 C         -0.4770706276        1.9021791650       -0.3887574866
 H         -0.3397528875        0.9938530211       -0.9570414466
 N          1.9199460657        2.1468936498       -0.3314158821
 S          2.2038217878        0.5021480303       -0.0388292983
 O          1.5770773521       -0.2804168490       -1.0745247731
 O          1.8539032692        0.1857955578        1.3264771799
 C          3.9745412151        0.4477755047       -0.2437958742
 C          4.7912483458        0.4032498325        0.8698173627
 C          6.1661350263        0.3927308314        0.6927825917
 C          6.6973047790        0.4301698954       -0.5875120837
 C          5.8643860556        0.4738838516       -1.6960085391
 C          4.4891997707        0.4831731136       -1.5258036136
 H          3.8016795491        0.5080209695       -2.3553080490
 H          6.2805846496        0.5002618127       -2.6901218344
 H          7.7672477167        0.4226513724       -0.7229810567
 H          6.8156930139        0.3554051521        1.5523734327
 H          4.3314272394        0.3683133337        1.8444625161
 H          2.6486943909        2.6940796634        0.1103352068
 H          1.3381940575        4.3540235073        1.0647558686
 H         -0.9352775631        5.1333029987        1.6173707722
 H         -2.8995133919        3.8245626331        0.9432199549
 H         -3.1074185336        1.6705379511       -1.5598333001
 C         -4.1982636665        1.7347237711        0.2812849064
 C         -5.1499082331        2.8005103954       -0.1705190289
 C         -5.5121390988        1.3556586130       -0.3311106650
 H         -6.2770397577        0.9381119548        0.3060587224
 H         -5.4877688328        0.9270255458       -1.3227376336
 H         -5.6720433291        3.3762815396        0.5788012205
 H         -4.8928796858        3.3573863339       -1.0589426170
 H         -4.0757723643        1.5709627703        1.3459037896
