  62
        -98.94050979
 C         -1.2820891916       -1.6976623579       -0.4080925265
 C         -1.2905078738       -0.3650064376       -0.8880483001
 C         -2.5588515310        0.3754218897       -0.7376445050
 C         -3.6069583274       -0.2094078024       -0.1347227082
 C         -5.0020600853        0.3252089060        0.0772687055
 C         -5.1503019010        1.7917392495        0.4996446528
 C         -4.0331862905        2.3177141269        1.4123524885
 H         -4.4808680869        2.7881430351        2.2900109791
 H         -3.4133262293        1.4920645633        1.7672509611
 C         -3.1432084470        3.3544362563        0.7244003288
 H         -3.7771829504        4.0406554681        0.1575466906
 H         -2.6280575786        3.9390327236        1.4909304258
 C         -2.0674562413        2.7824910091       -0.1984848077
 H         -1.2963076829        2.2892540171        0.4009237534
 H         -1.5929216092        3.6253548334       -0.7091743414
 C         -2.5588377245        1.7840368169       -1.2596464089
 H         -3.5368338615        2.0684740785       -1.6419181931
 H         -1.8427255960        1.7966566724       -2.0859016736
 H         -5.2110995181        2.4227633787       -0.3858600872
 H         -6.1098201181        1.8765056754        1.0127090244
 H         -5.5698890528        0.1592146959       -0.8431487264
 H         -5.4377241845       -0.3210154501        0.8433260917
 O         -3.5395065027       -1.4782661568        0.3594308355
 C         -2.3964069643       -2.2439240348        0.2333179207
 O         -2.4963617551       -3.3896946959        0.7192877466
 H          1.2700334085       -0.3606310832        0.0230196329
 C          1.5013183395       -1.1354129799        0.7347930951
 C          0.8856357538       -2.3728705643        0.6170544108
 C          1.1746683293       -3.3574816976        1.5544258704
 C          2.0559600728       -3.1018389539        2.5901857669
 C          2.6562735192       -1.8617834466        2.7141038821
 C          2.3718792885       -0.8706271768        1.7809402150
 N          2.9801845633        0.3893225355        1.8566666338
 S          2.1645279671        1.7507107687        1.3226325213
 O          2.8813389694        2.8540809831        1.9333913121
 O          0.7560770425        1.6842474120        1.6386700381
 C          2.4465857925        1.8070494296       -0.4340617171
 C          1.6230010989        2.6106890158       -1.1943755398
 C          1.8436303029        2.6990090170       -2.5589155197
 C          2.8825157797        1.9876174384       -3.1368126473
 C          3.7064669795        1.1909848533       -2.3574025735
 C          3.4922411911        1.0995100416       -0.9915208066
 H          4.1088825010        0.4782886627       -0.3632369207
 H          4.5120504032        0.6347233520       -2.8097000023
 H          3.0472183880        2.0507927359       -4.2011797671
 H          1.1990848540        3.3151489738       -3.1654157522
 H          0.8170925213        3.1359530353       -0.7088193750
 H          3.5214576644        0.5671341444        2.6894968417
 H          3.3361637496       -1.6584658902        3.5274964505
 H          2.2712018207       -3.8729079913        3.3144713501
 H          0.6890081066       -4.3193633080        1.4775561355
 C         -0.0826577020       -2.6288189336       -0.5121139848
 H         -0.4852572616       -3.6430613365       -0.3839282953
 C          0.6237658776       -2.5575807212       -1.8522075357
 C          1.4672034892       -3.7159771436       -2.2887865697
 C          0.1628373132       -3.4379211091       -2.9727441466
 H          0.1773363761       -3.0417210128       -3.9767980737
 H         -0.6674633345       -4.1016120680       -2.7782157505
 H          2.3815881912       -3.5127432065       -2.8241214657
 H          1.5213995530       -4.5715925147       -1.6326555176
 H          0.9604465816       -1.5620170849       -2.1083431466
 O         -0.3130870992        0.1973468180       -1.4475280484
