  62
        -98.94046443
 C          2.5223937414        1.2590919932        0.1201078954
 C          3.4110701322        0.6416368892        1.0400432347
 C          4.3962895987       -0.2855346810        0.4752628248
 C          4.4322394432       -0.4876474256       -0.8538990222
 C          5.3947819739       -1.3793072164       -1.5901604267
 C          4.9770370917       -2.8558625012       -1.6231657996
 C          5.1235643153       -3.6032504437       -0.2970329200
 H          5.0080947292       -4.6668215422       -0.5150609220
 H          6.1323934798       -3.4581597299        0.0904848642
 C          4.0965613840       -3.2047111850        0.7722263622
 H          3.2627519769       -2.6798331366        0.2998911985
 H          3.6856738176       -4.1045034972        1.2354992415
 C          4.6561402908       -2.3325874679        1.8962699545
 H          3.8364727710       -2.0803806725        2.5738121126
 H          5.4002503837       -2.8972307014        2.4622753946
 C          5.2966825801       -1.0222692570        1.4201663960
 H          6.2590607482       -1.2225617650        0.9495868475
 H          5.4578867515       -0.3826254294        2.2912423454
 H          3.9410029823       -2.9182215276       -1.9643807351
 H          5.6022106920       -3.3542367486       -2.3676676917
 H          6.3873225393       -1.2905981053       -1.1475787895
 H          5.4374099805       -1.0099778858       -2.6171407170
 O          3.5778684962        0.1347284344       -1.7067761293
 C          2.5905296809        1.0009663636       -1.2492822190
 O          1.8701883896        1.4517288055       -2.1610460318
 O          3.3859332793        0.8673710819        2.2788274835
 C          1.5055711891        2.2225594931        0.7063944036
 C          0.1807097034        1.5512745074        0.9637396656
 C         -0.4549460269        1.6717673034        2.1937551839
 C         -1.6843364370        1.0745237489        2.4126587320
 C         -2.3033865930        0.3470340609        1.4121823925
 C         -1.6763373022        0.2197512482        0.1794907665
 C         -0.4432925751        0.8176086941       -0.0360607627
 H          0.0343859364        0.7258329293       -1.0009773405
 N         -2.2986695447       -0.5207755400       -0.8444786866
 S         -3.8425648852       -0.0267441107       -1.2973387330
 O         -4.0062020426       -0.4779014552       -2.6616967159
 O         -4.0320312333        1.3854910119       -1.0578870594
 C         -4.9181663254       -0.9747718234       -0.2416227394
 C         -5.8117934678       -0.3307013186        0.5915315795
 C         -6.6424369067       -1.0922072476        1.3991426189
 C         -6.5655018787       -2.4759660052        1.3586628262
 C         -5.6646124661       -3.1073590055        0.5137497263
 C         -4.8323331240       -2.3522032340       -0.2968841363
 H         -4.1218464626       -2.8018270457       -0.9703898668
 H         -5.6080007176       -4.1835894709        0.4844255812
 H         -7.2117906921       -3.0662996687        1.9888610025
 H         -7.3439971181       -0.6034470348        2.0558967671
 H         -5.8320337583        0.7474210835        0.5925392699
 H         -1.7172643513       -0.6190820856       -1.6653573702
 H         -3.2605898159       -0.1202622757        1.5760795923
 H         -2.1659262711        1.1756438858        3.3730901447
 H          0.0256273753        2.2313361973        2.9828791920
 H          1.9265516256        2.5037709816        1.6847664618
 C          1.3639712206        3.5028854318       -0.1072639299
 C          0.1456806673        3.8619528945       -0.8991141309
 C          0.4576955414        4.6007198353        0.3657363741
 H          0.8014008741        5.6217548791        0.3003002152
 H         -0.1641213235        4.3954688351        1.2240368383
 H          0.2953934315        4.3586621594       -1.8459265895
 H         -0.6927840048        3.1821708263       -0.9009983898
 H          2.3130994152        3.8104118949       -0.5356035663
