  62
        -98.94414227
 C         -2.2008888896       -0.7797970975       -0.0294368274
 C         -2.9016437315       -0.0860118231        0.9848255242
 C         -3.6891417734        1.0733307132        0.5448175465
 C         -3.6691767628        1.4263957643       -0.7538054065
 C         -4.4632984939        2.5528778971       -1.3476910860
 C         -5.8308132056        2.0649251771       -1.8462109703
 C         -6.5971838354        1.2252976084       -0.8241860802
 H         -7.5573413527        0.9627961592       -1.2734371065
 H         -6.0567812256        0.2915398874       -0.6526889221
 C         -6.8368210901        1.9253482708        0.5208130034
 H         -6.7009231583        3.0015840745        0.4081911415
 H         -7.8731139342        1.7593569921        0.8224884983
 C         -5.9549462625        1.4208518347        1.6645589967
 H         -6.0170448871        0.3311400777        1.7219326335
 H         -6.3511695295        1.8206038499        2.6018546649
 C         -4.4744946849        1.8154383398        1.5895203205
 H         -4.3881217923        2.8943811126        1.4443637401
 H         -4.0134369360        1.5605338265        2.5485896381
 H         -6.4268950278        2.9357024449       -2.1250477507
 H         -5.6761220754        1.4576534997       -2.7409409046
 H         -4.5944777398        3.3327496381       -0.5999883563
 H         -3.9033858730        2.9606432737       -2.1909721722
 O         -2.9491884879        0.7608309420       -1.6922651875
 C         -2.2046991554       -0.3622884090       -1.3607293934
 O         -1.6024877740       -0.8807813597       -2.3183754401
 H          0.0626116073        0.1617222672        0.8816144610
 C          0.6631592079       -0.5856573773        0.3763465881
 C          0.0719781809       -1.7878414578        0.0062309751
 C          0.8587146554       -2.7431126516       -0.6230886485
 C          2.1921453811       -2.4861232897       -0.8925910908
 C          2.7696041314       -1.2806386759       -0.5407430518
 C          1.9964899299       -0.3231928205        0.1035266822
 N          2.5722424915        0.9097078890        0.4592129583
 S          4.0041875372        0.8897765949        1.3373653512
 O          4.1111559029       -0.3026488787        2.1458509922
 O          4.0309208194        2.1511852406        2.0453738434
 C          5.2734726782        0.8983683666        0.0890912150
 C          5.2734072861        1.9280084925       -0.8314103155
 C          6.2584145942        1.9542231489       -1.8056498116
 C          7.2225751557        0.9576997035       -1.8410686335
 C          7.2109083069       -0.0672608637       -0.9075197270
 C          6.2278331892       -0.0997797792        0.0693757090
 H          6.1755661557       -0.8793656876        0.8125649192
 H          7.9613572173       -0.8407648808       -0.9369092333
 H          7.9875148568        0.9804730284       -2.6010800366
 H          6.2705706461        2.7496907960       -2.5332684888
 H          4.5087801510        2.6841681715       -0.7669147620
 H          1.9163121464        1.5592659690        0.8683994689
 H          3.8051181312       -1.0745949480       -0.7564882616
 H          2.7892466288       -3.2354814793       -1.3892702553
 H          0.4273062276       -3.6884492699       -0.9079451422
 C         -1.3834454111       -2.0023576122        0.3438963885
 H         -1.4665875163       -2.0867075957        1.4384092408
 C         -1.9768773291       -3.2454730382       -0.2854856804
 C         -1.8365454240       -4.5764911025        0.3888497841
 C         -3.1659436942       -3.8857949615        0.3636865361
 H         -3.9457193991       -4.2854120524       -0.2671543069
 H         -3.5302344198       -3.4410235550        1.2785383267
 H         -1.7059127290       -5.4547263420       -0.2251679055
 H         -1.3003486710       -4.6083928587        1.3253585355
 H         -1.9556326310       -3.2124317678       -1.3689773462
 O         -2.8645143170       -0.4166429959        2.2020752568
