  62
        -98.93297120
 C         -2.5361398925       -1.4112370312       -0.1166587163
 C         -2.4155641215       -0.1630565147       -0.7719412044
 C         -3.6495631090        0.6334178794       -0.8723255615
 C         -4.7931566307        0.1411741214       -0.3620641257
 C         -6.1111244505        0.8610482661       -0.3183984071
 C         -6.1042795911        1.9032603519        0.8181628005
 C         -6.1935377775        3.3537178035        0.3434587714
 H         -7.2211187371        3.5656035235        0.0407151037
 H         -5.9634693048        3.9923566810        1.1989570197
 C         -5.2745220869        3.7318365364       -0.8221386602
 H         -5.7129103956        3.3906500605       -1.7610928018
 H         -5.2513357062        4.8226984681       -0.8675959319
 C         -3.8331423489        3.2127814466       -0.7368223624
 H         -3.1670009589        3.9964884474       -1.1038163567
 H         -3.5519611302        3.0206906899        0.2991078847
 C         -3.5527941708        1.9557997453       -1.5816672346
 H         -4.2081092445        1.9508061701       -2.4571705902
 H         -2.5209869025        2.0028527652       -1.9427667573
 H         -6.9403933127        1.7122723089        1.4925237588
 H         -5.1920443390        1.7664443286        1.4029754268
 H         -6.3006837073        1.3400292805       -1.2763009636
 H         -6.8838993975        0.1125892197       -0.1422346460
 O         -4.8675451250       -1.0657061936        0.2575308562
 C         -3.7471532601       -1.8660582174        0.4039731973
 O         -3.9542983982       -2.9392110417        1.0053351758
 O         -1.3343843169        0.2648611503       -1.2562769784
 C         -1.3181481193       -2.3031106285        0.0504265846
 C         -0.2585776194       -1.5627175844        0.8303727882
 C         -0.5925672600       -1.0517605044        2.0824064274
 C          0.3326988355       -0.3481338246        2.8278921576
 C          1.6139006530       -0.1405637635        2.3458548750
 C          1.9578843545       -0.6459996396        1.1006489394
 C          1.0246147634       -1.3569479753        0.3531651071
 H          1.3056010061       -1.7385039273       -0.6158593151
 N          3.2638385202       -0.4732273826        0.6053950302
 S          4.0316204475        1.0121734013        0.8403563114
 O          4.4777853200        1.0853309148        2.2094605733
 O          3.1881176035        2.0977864601        0.3922389090
 C          5.4354887609        0.8204703842       -0.2403549138
 C          5.3611156608        1.2955394461       -1.5359913742
 C          6.4462184651        1.1145806873       -2.3792539682
 C          7.5792218676        0.4625850627       -1.9159951513
 C          7.6389814197       -0.0080189709       -0.6126499685
 C          6.5581751598        0.1705880330        0.2360333452
 H          6.5618336121       -0.1696893917        1.2582447896
 H          8.5226995469       -0.5119317933       -0.2559135022
 H          8.4217111711        0.3230311933       -2.5748426274
 H          6.4035783221        1.4820444325       -3.3919952057
 H          4.4636581654        1.8040551121       -1.8510927790
 H          3.3357666861       -0.7545882868       -0.3633815238
 H          2.3412914068        0.4163022254        2.9137024248
 H          0.0567473875        0.0467881872        3.7945675935
 H         -1.5952295515       -1.2082236373        2.4582574642
 H         -1.6496038336       -3.1580445106        0.6570621731
 C         -0.8533343972       -2.8134947584       -1.2970935380
 C         -0.0779418566       -4.0924387218       -1.3900327416
 C         -1.4977849952       -4.0402282946       -1.8662958812
 H         -1.6891384693       -4.0761042227       -2.9282869511
 H         -2.2590206880       -4.5218023769       -1.2698738712
 H          0.7056168769       -4.1694670317       -2.1286791289
 H          0.1287968978       -4.6182120713       -0.4702714470
 H         -0.6112771981       -2.0127299056       -1.9864498612
