  62
        -98.94298147
 C         -2.6830289375       -1.2014996094        0.1115343072
 C         -2.6966829289       -0.1898538334       -0.8784027231
 C         -3.8947085275        0.6616780534       -0.9027365888
 C         -4.8911210266        0.4246025665       -0.0300672592
 C         -6.1381731133        1.2505051382        0.0924523009
 C         -5.9574940204        2.3773982957        1.1193304729
 C         -4.6781931729        3.1916281921        0.9252221318
 H         -4.6732077896        3.9748093650        1.6864587683
 H         -3.8143009325        2.5512396871        1.1179871155
 C         -4.5350336438        3.8281871595       -0.4642810141
 H         -4.2031616462        4.8614435254       -0.3430926242
 H         -5.5057700534        3.8559880412       -0.9605958467
 C         -3.5190601473        3.1383708451       -1.3767029452
 H         -3.3379707141        3.7888548337       -2.2364892968
 H         -2.5693614845        3.0227410586       -0.8480243063
 C         -3.9359421730        1.7661599456       -1.9208303773
 H         -4.9255459401        1.8352439739       -2.3769340664
 H         -3.2177918016        1.4843540272       -2.6963821042
 H         -5.9331917948        1.9348172806        2.1179032430
 H         -6.8241109669        3.0385314004        1.0621659388
 H         -6.3889012681        1.6679371951       -0.8806957736
 H         -6.9510860923        0.6000193576        0.4194566730
 O         -4.8529058605       -0.5768268792        0.8864949743
 C         -3.7459400543       -1.4026936379        0.9912721146
 O         -3.8262241466       -2.2626305208        1.8922077885
 H          0.9688894810       -2.2143472098       -1.0417155656
 C          0.9312460193       -1.4725340069       -0.2592094851
 C         -0.2322403010       -1.2959123980        0.4714287533
 C         -0.2407699159       -0.3384987260        1.4829483035
 C          0.8760769537        0.4332453477        1.7361765597
 C          2.0298023730        0.2679552054        0.9890464092
 C          2.0563249778       -0.6945216974       -0.0094538111
 N          3.2178332269       -0.8663725958       -0.7767338171
 S          4.7139836472       -0.9018432762       -0.0244869072
 O          5.5696916944       -1.6386536177       -0.9287000251
 O          4.6177451637       -1.4097392557        1.3242510106
 C          5.2270288962        0.8030682160       -0.0029851092
 C          5.2395045761        1.4946436022       -1.1983505875
 C          5.6474634259        2.8188219130       -1.2010787544
 C          6.0367155104        3.4251090206       -0.0158654238
 C          6.0222214191        2.7161839708        1.1754229332
 C          5.6143593226        1.3912862365        1.1849366448
 H          5.5827903067        0.8030556819        2.0883910081
 H          6.3257758136        3.1891143341        2.0956058258
 H          6.3534361292        4.4561566155       -0.0209734404
 H          5.6596665885        3.3734490752       -2.1255484501
 H          4.9323994815        0.9880975413       -2.0981050871
 H          3.1430881589       -1.5754314175       -1.4910537474
 H          2.9028735743        0.8704297294        1.1787140565
 H          0.8495152388        1.1747017668        2.5205425642
 H         -1.1421498648       -0.2070236846        2.0669762826
 C         -1.4779739070       -2.1158879158        0.2368802449
 H         -1.6526995765       -2.7301984893        1.1325296895
 C         -1.3937039989       -3.0290487680       -0.9685427819
 C         -0.7532185418       -4.3787787068       -0.8511382402
 C         -2.2402475729       -4.2644768878       -0.9982190972
 H         -2.6911020226       -4.5587940544       -1.9340623061
 H         -2.8591124857       -4.4611739873       -0.1347562035
 H         -0.1851203901       -4.7572225419       -1.6879921065
 H         -0.3594070345       -4.6638433844        0.1130179083
 H         -1.2755502780       -2.4826051419       -1.8974270107
 O         -1.7595138024       -0.0058779661       -1.6979339080
