  62
        -98.93704804
 C         -0.8340022033       -1.5985697114       -0.7745020284
 C         -1.9980237949       -1.9349520635       -0.0413175300
 C         -3.1327289286       -0.9939362764       -0.0922758815
 C         -2.9998302707        0.1340080278       -0.8143330618
 C         -3.9971821178        1.2478759256       -0.9944055177
 C         -4.1191743350        2.1599051324        0.2376306119
 C         -4.1248048954        1.4365216394        1.5814677362
 H         -3.2253557376        0.8234312822        1.6627197092
 H         -4.0747077145        2.1938421293        2.3682116426
 C         -5.3555669104        0.5733162092        1.8468247848
 H         -5.2638008767        0.1743158523        2.8603528340
 H         -6.2482022528        1.2025156827        1.8177837502
 C         -5.5599360129       -0.6020477269        0.8901441870
 H         -5.9399667966       -0.2636398581       -0.0699025699
 H         -6.3337150351       -1.2437829579        1.3218983626
 C         -4.3278168417       -1.4794748622        0.6923020977
 H         -3.9423881349       -1.7830039825        1.6723526042
 H         -4.6385632537       -2.4123367773        0.2058683920
 H         -3.2672342705        2.8412582851        0.2351897780
 H         -5.0298703793        2.7529931227        0.1382947745
 H         -3.6449674830        1.8461800530       -1.8372802193
 H         -4.9637546223        0.8329409619       -1.2669293223
 O         -1.8586273105        0.4236048892       -1.4991774286
 C         -0.7578818956       -0.4193958871       -1.5167582243
 O          0.1783147159       -0.0018522438       -2.2208184391
 H          1.3717561288       -0.1586145050       -0.0822476218
 C          1.6864014060       -0.9214881150        0.6124327478
 C          1.2434444366       -2.2258846337        0.4455607233
 C          1.6561569741       -3.1942145356        1.3537527740
 C          2.4992987372       -2.8630237951        2.3994859617
 C          2.9556844355       -1.5661132395        2.5501802690
 C          2.5451892431       -0.5891865933        1.6498584488
 N          2.9649262552        0.7409229733        1.7858289787
 S          3.2922759014        1.6483517069        0.4156729954
 O          3.8690295867        0.8333924960       -0.6273067624
 O          4.1306779711        2.7268847762        0.9010353293
 C          1.7306363605        2.3390168768       -0.0790530579
 C          1.4844240772        2.5451263049       -1.4205171398
 C          0.2991717485        3.1562355460       -1.7968313888
 C         -0.6127350492        3.5467464960       -0.8306535895
 C         -0.3516883256        3.3285299459        0.5138518509
 C          0.8328571627        2.7225864010        0.8975264560
 H          1.0673400136        2.5356259287        1.9326040226
 H         -1.0657430930        3.6275450030        1.2652370608
 H         -1.5340640385        4.0219029073       -1.1306811174
 H          0.0892008156        3.3101834006       -2.8428983426
 H          2.2078135193        2.2056826967       -2.1440706976
 H          3.6369389606        0.9092531653        2.5203225047
 H          3.6200381802       -1.3067877578        3.3603855724
 H          2.8103371011       -3.6226871641        3.1003973692
 H          1.3002218587       -4.2079289981        1.2427480648
 C          0.3228835914       -2.5779559211       -0.6950254701
 H         -0.1428245120       -3.5468453519       -0.4518492090
 C          1.0646140603       -2.7566590695       -2.0113377800
 C          2.3885396879       -2.1309687791       -2.3183365341
 C          2.3001703208       -3.6059680453       -2.0730561517
 H          2.4257118421       -4.2785325315       -2.9081989698
 H          2.6948508396       -3.9797552523       -1.1401663078
 H          2.5477196444       -1.7803475089       -3.3270733304
 H          2.8571886239       -1.5020557630       -1.5767594036
 H          0.3759123291       -2.8409909394       -2.8467801952
 O         -2.0945019459       -2.9968024612        0.6333163966
