  62
        -98.93786180
 C         -2.5891857695       -1.1421882225        0.5148226783
 C         -3.4505104875       -0.8574470392       -0.5739319920
 C         -4.5990381843        0.0128493327       -0.2684976539
 C         -4.7681947459        0.4808460520        0.9804491338
 C         -5.8545960383        1.4245679658        1.4061173013
 C         -5.4018980503        2.8858936614        1.2783198702
 C         -4.7710793539        3.2213850293       -0.0732015926
 H         -4.5196874862        4.2841205646       -0.0594312014
 H         -3.8327963761        2.6711178025       -0.1751471140
 C         -5.6672097850        2.9235530608       -1.2834680456
 H         -5.6208234846        3.7712035437       -1.9704334521
 H         -6.7044439735        2.8247512058       -0.9612328930
 C         -5.2641196986        1.6818195182       -2.0808319393
 H         -5.8187700173        1.6880270485       -3.0229503740
 H         -4.2006991919        1.7341320844       -2.3270919728
 C         -5.5350373707        0.3343318028       -1.3998610050
 H         -6.5732284110        0.2933286428       -1.0643728118
 H         -5.3831682453       -0.4506143586       -2.1465783404
 H         -4.6657261489        3.0895942821        2.0593864003
 H         -6.2658604455        3.5307443979        1.4491503670
 H         -6.7386819823        1.2522595602        0.7953823655
 H         -6.0992099601        1.2189906383        2.4496248624
 O         -3.9246593611        0.1803034434        2.0013454758
 C         -2.8192391166       -0.6242453937        1.7923875428
 O         -2.1257558638       -0.8150970890        2.8126447166
 H          1.0273110919       -1.8096921562        1.6395999472
 C          0.9946275961       -1.2081989246        0.7406436756
 C         -0.1622528855       -1.1907000638       -0.0239322869
 C         -0.1947280340       -0.3977719987       -1.1671741561
 C          0.9087821258        0.3523920451       -1.5298605438
 C          2.0607275828        0.3337239782       -0.7623849587
 C          2.1031006302       -0.4512281970        0.3814769769
 N          3.2641464184       -0.4617433712        1.1718491664
 S          4.7404426497       -0.7448625758        0.4227506549
 O          4.5769198893       -1.5404720597       -0.7714179362
 O          5.5866867483       -1.2988510308        1.4565640288
 C          5.3286682123        0.8813263064        0.0007104441
 C          5.6141263539        1.1906120561       -1.3146726624
 C          6.0782096716        2.4610353762       -1.6187192048
 C          6.2487901606        3.3937836881       -0.6072151601
 C          5.9605162810        3.0661419807        0.7094382585
 C          5.4968407961        1.7978800549        1.0200845227
 H          5.2664208142        1.5023302259        2.0301048283
 H          6.0949675768        3.7940749871        1.4932760222
 H          6.6093698624        4.3818643179       -0.8460859845
 H          6.3039413096        2.7173660044       -2.6414034282
 H          5.4635275657        0.4341816169       -2.0685252080
 H          3.1784460383       -1.0070828185        2.0172868298
 H          2.9212755783        0.9196789085       -1.0408654560
 H          0.8715648412        0.9618034249       -2.4201828429
 H         -1.0917153601       -0.3832501556       -1.7675872109
 C         -1.3526101066       -2.0176022776        0.3891823319
 H         -1.1600428304       -2.3851824120        1.4098038064
 C         -1.5703175100       -3.2406203833       -0.4920120192
 C         -0.8890605715       -3.4586189452       -1.8060972445
 C         -0.4860572183       -4.2707439223       -0.6145961603
 H         -0.7548705582       -5.3156411185       -0.5785269780
 H          0.4676232128       -4.0448782125       -0.1597727974
 H         -1.4602543123       -3.9310681670       -2.5904731976
 H         -0.2025242901       -2.7068536383       -2.1618996234
 H         -2.5852221907       -3.6165385018       -0.4141261588
 O         -3.2891392813       -1.2929063995       -1.7418990825
