  62
        -98.94298547
 C         -2.6787543733        1.2011908803       -0.1323816051
 C         -2.7009642265        0.2059112395        0.8738454051
 C         -3.8988922503       -0.6458457501        0.9017261508
 C         -4.8853277224       -0.4273320763        0.0130482141
 C         -6.1319419614       -1.2545438290       -0.1050407997
 C         -5.9419995646       -2.4043040723       -1.1044661947
 C         -4.6665402016       -3.2160297193       -0.8775580747
 H         -4.6542196296       -4.0161861862       -1.6208398513
 H         -3.7993561924       -2.5814772287       -1.0746608677
 C         -4.5405817778       -3.8212239767        0.5275230711
 H         -5.5169546369       -3.8360139988        1.0132325664
 H         -4.2095456169       -4.8575856130        0.4336478234
 C         -3.5334238133       -3.1127709820        1.4354123555
 H         -2.5775249399       -3.0115495716        0.9150446799
 H         -3.3637430481       -3.7437292221        2.3119269771
 C         -3.9528399083       -1.7275600187        1.9434751633
 H         -3.2422621365       -1.4297576414        2.7200487270
 H         -4.9473367468       -1.7842474195        2.3906614284
 H         -5.9056357508       -1.9841891364       -2.1123235627
 H         -6.8103945569       -3.0626467309       -1.0422522706
 H         -6.3936967232       -1.6498189284        0.8744537401
 H         -6.9404025938       -0.6104880451       -0.4550674900
 O         -4.8362294740        0.5542712452       -0.9241452754
 C         -3.7304824801        1.3813809685       -1.0302051843
 O         -3.8014236954        2.2233432773       -1.9486601085
 O         -1.7722801491        0.0368463992        1.7061904394
 C         -1.4765797370        2.1196942047       -0.2589799574
 C         -0.2285068241        1.3011417629       -0.4853602665
 C         -0.2199128136        0.3697592161       -1.5209676647
 C          0.8989334917       -0.4001799192       -1.7708585569
 C          2.0368282287       -0.2600513411       -0.9948085190
 C          2.0449430144        0.6738404188        0.0308290097
 C          0.9185756685        1.4512852644        0.2762758095
 H          0.9419826461        2.1708720912        1.0797482028
 N          3.1901888876        0.8170430354        0.8285661371
 S          4.6980694422        0.8931980546        0.1024887021
 O          5.5373183285        1.5872117514        1.0547531568
 O          4.6208972989        1.4665064058       -1.2210923696
 C          5.2184676631       -0.8067953118        0.0036583293
 C          5.2006122652       -1.5636587397        1.1587623374
 C          5.6166007246       -2.8840778219        1.0997404965
 C          6.0439275706       -3.4215420369       -0.1053994859
 C          6.0590995186       -2.6476598727       -1.2555701828
 C          5.6431787995       -1.3262841276       -1.2034303559
 H          5.6328505399       -0.6888959510       -2.0733820013
 H          6.3919233976       -3.0672043789       -2.1913838950
 H          6.3670501104       -4.4497281828       -0.1481967722
 H          5.6055636940       -3.4892841963        1.9919475738
 H          4.8636940087       -1.1096362247        2.0757130483
 H          3.0989880489        1.5002008170        1.5659468916
 H          2.9116058531       -0.8609830232       -1.1818939451
 H          0.8865402295       -1.1200182988       -2.5754196864
 H         -1.1092323122        0.2587180957       -2.1272915549
 H         -1.6503811916        2.7264150600       -1.1598254247
 C         -1.3985224629        3.0424419138        0.9392837390
 C         -0.7338953197        4.3802123982        0.8187302182
 C         -2.2246944688        4.2918545218        0.9437622095
 H         -2.6848457964        4.6031117129        1.8695408582
 H         -2.8265734103        4.4908406638        0.0689114427
 H         -0.1722880092        4.7573846219        1.6605099097
 H         -0.3201273939        4.6485890190       -0.1418334737
 H         -1.3036149672        2.5038101496        1.8753151298
