  62
        -98.93953847
 C          2.1232275940        1.0332283133        0.0163454767
 C          2.8331835003        0.3331236006        1.0173194438
 C          3.5635216909       -0.8733875938        0.5908399964
 C          3.4984807253       -1.2626082452       -0.6963755098
 C          4.0911050843       -2.4626691763       -1.4056790400
 C          5.1845242821       -3.3002315936       -0.7473411774
 C          6.5212117728       -2.5809130378       -0.5690516016
 H          7.1880250433       -3.2358872325       -0.0041759065
 H          6.9649843060       -2.4245576796       -1.5554052979
 C          6.4521294050       -1.2230995149        0.1252258490
 H          7.4686485351       -0.8245400680        0.1811561177
 H          5.8678571585       -0.5295150458       -0.4828858710
 C          5.8825891598       -1.2417672560        1.5422288523
 H          6.0399761871       -0.2493863398        1.9729822715
 H          6.4332827138       -1.9615489281        2.1507488193
 C          4.3806330191       -1.5583683506        1.6485776474
 H          4.1999501026       -2.6307983836        1.6387412135
 H          4.0218763404       -1.1750536298        2.6084604791
 H          5.3560803778       -4.1571923123       -1.4044437306
 H          4.8349433752       -3.6976845819        0.2010326360
 H          4.4574312619       -2.0877750442       -2.3667210858
 H          3.2429384149       -3.1176806978       -1.6356501078
 O          2.7661549945       -0.5736600688       -1.6207812560
 C          2.0678352984        0.5792303670       -1.3002438875
 O          1.4570385954        1.0912655370       -2.2564768262
 O          2.8471546647        0.6915711963        2.2267961481
 C          1.3495776501        2.2839045736        0.3952155066
 C         -0.1215713766        2.0490712228        0.1550104485
 C         -0.9221381343        2.8781615600       -0.6181221800
 C         -2.2569166037        2.5706257230       -0.8211196923
 C         -2.8221488909        1.4434072719       -0.2545273542
 C         -2.0317344116        0.6110638325        0.5279075440
 C         -0.6969192297        0.9213750170        0.7293898460
 H         -0.0794222962        0.2677817373        1.3342377748
 N         -2.6004606016       -0.5335167014        1.1200188605
 S         -3.3676307929       -1.6245932423        0.0959933483
 O         -3.3111978142       -2.8942980379        0.7885966331
 O         -2.8043923319       -1.5932148417       -1.2343866045
 C         -5.0546062714       -1.0562055042        0.0644738599
 C         -5.7212702133       -0.9279095914        1.2674558596
 C         -7.0359793628       -0.4902618432        1.2596816797
 C         -7.6588490726       -0.1932197597        0.0564026593
 C         -6.9767574583       -0.3307158129       -1.1428284908
 C         -5.6607546780       -0.7668978481       -1.1422076687
 H         -5.0873398355       -0.8821134272       -2.0483336634
 H         -7.4622436243       -0.0994106852       -2.0772973438
 H         -8.6820775646        0.1477225599        0.0529314800
 H         -7.5696159454       -0.3817270110        2.1900848396
 H         -5.2010314388       -1.1719784465        2.1785262166
 H         -1.9607141406       -1.0250656437        1.7284029934
 H         -3.8592926127        1.1988405926       -0.4160719564
 H         -2.8656107367        3.2190186377       -1.4326104639
 H         -0.4991124439        3.7576828308       -1.0743592532
 H          1.5038907858        2.4057593646        1.4775874628
 C          1.9035950464        3.4987068365       -0.3169575312
 C          1.7325049810        4.8620952561        0.2814904704
 C          3.0817481658        4.2106619057        0.2749196098
 H          3.8394347937        4.5947872545       -0.3914140113
 H          3.4734698243        3.8315669679        1.2076091735
 H          1.5653457166        5.6983981999       -0.3801231260
 H          1.2081979099        4.9314396848        1.2224152245
 H          1.8687351422        3.4016810340       -1.3961391467
