  62
        -98.94798879
 C          1.2482106044       -0.7789361547       -0.3964512951
 C          2.0855931428       -0.5920208781        0.7291048236
 C          3.0433777843        0.5164688851        0.6306506144
 C          3.0327090169        1.3182410055       -0.4495196410
 C          3.9250035018        2.5082211115       -0.6779345958
 C          5.3020948892        2.1558625494       -1.2572924717
 C          6.2654778718        1.4806005164       -0.2803016919
 H          7.2524464798        1.4893630496       -0.7470181172
 H          6.3309931675        2.0752064184        0.6313917923
 C          5.8984034102        0.0323286595        0.0720033676
 H          6.7914288786       -0.5938430838        0.0138715075
 H          5.1883890211       -0.3523332212       -0.6635920724
 C          5.3077000735       -0.1495573606        1.4702078037
 H          6.0568088582        0.1098727653        2.2214865240
 H          5.0513028324       -1.2039931307        1.5995414175
 C          4.0441004911        0.6799553311        1.7345312575
 H          3.5808380340        0.3189167403        2.6562210497
 H          4.3023961921        1.7311233300        1.8627777970
 H          5.7584578483        3.0875974594       -1.5994666333
 H          5.1593975763        1.5152834432       -2.1306254702
 H          4.0496398558        3.0562221822        0.2566984084
 H          3.4043394476        3.1536144651       -1.3891169295
 O          2.1648608354        1.1451390782       -1.4820336997
 C          1.2603853501        0.0959798301       -1.4821891032
 O          0.5251115928        0.0508427544       -2.4908788086
 O          2.0378990783       -1.3081198953        1.7631067951
 C          0.2309374764       -1.9043501606       -0.4076271737
 C         -0.7968215888       -1.6918187555        0.6786734729
 C         -1.3335407658       -2.7217490114        1.4410277313
 C         -2.2994379663       -2.4530605181        2.3957801146
 C         -2.7716379085       -1.1675772239        2.5910683526
 C         -2.2451117991       -0.1317618534        1.8281067987
 C         -1.2608592957       -0.4014285819        0.8918321098
 H         -0.8387063319        0.4165382999        0.3286030478
 N         -2.6963854290        1.1895288157        1.9735572729
 S         -2.8395365818        2.1452467458        0.6067857080
 O         -1.5444108280        2.6130592878        0.1795791667
 O         -3.7826857992        3.1744526877        0.9917758672
 C         -3.5824542600        1.0753594100       -0.6130066519
 C         -4.8990627817        0.7090363294       -0.4044265151
 C         -5.5045991031       -0.1643972718       -1.2916160529
 C         -4.7842551616       -0.6615517994       -2.3676156560
 C         -3.4673184187       -0.2798198475       -2.5666843255
 C         -2.8556268979        0.5974050634       -1.6836590143
 H         -1.8287630711        0.8992684118       -1.8225055908
 H         -2.8984267676       -0.6598589551       -3.4004874455
 H         -5.2510482121       -1.3476543695       -3.0565718423
 H         -6.5310806311       -0.4572856578       -1.1413460319
 H         -5.4276346583        1.1261871823        0.4373073570
 H         -3.4809892638        1.3057872360        2.5978804194
 H         -3.5311197702       -0.9630966482        3.3297673192
 H         -2.6997198609       -3.2601433567        2.9901066258
 H         -0.9904844107       -3.7325334652        1.2932957663
 H         -0.2927968453       -1.8284694796       -1.3729164023
 C          0.9215815446       -3.2502239166       -0.3324008507
 C          0.3212701464       -4.4467916102       -1.0054843659
 C          1.5518993864       -3.8072284013       -1.5724245514
 H          2.4945866628       -4.3260463202       -1.4839689468
 H          1.4577856290       -3.2269008891       -2.4792045086
 H          0.4214809282       -5.4104438590       -0.5292438353
 H         -0.6088427428       -4.3090160960       -1.5357520697
 H          1.4468217781       -3.3956072263        0.6042088387
